<additional xmlns:xsi="http://www.w3.org/2001/XMLSchema-instance" xsi:noNamespaceSchemaLocation="http://sumo.dlr.de/xsd/additional_file.xsd">
    <laneAreaDetector file="e2output.xml" freq="60" friendlyPos="x" id="e2det_-695429325#0_0" lane="-695429325#0_0" length="9.15" pos="0"/>
    <laneAreaDetector file="e2output.xml" freq="60" friendlyPos="x" id="e2det_-695429325#0_1" lane="-695429325#0_1" length="9.15" pos="0"/>
    <laneAreaDetector file="e2output.xml" freq="60" friendlyPos="x" id="e2det_-695446623#0_0" lane="-695446623#0_0" length="13.89" pos="0"/>
    <laneAreaDetector file="e2output.xml" freq="60" friendlyPos="x" id="e2det_-695446623#0_1" lane="-695446623#0_1" length="13.89" pos="0"/>
    <laneAreaDetector file="e2output.xml" freq="60" friendlyPos="x" id="e2det_695446624#1_0" lane="695446624#1_0" length="3.82" pos="8.326672684688674e-17"/>
    <laneAreaDetector file="e2output.xml" freq="60" friendlyPos="x" id="e2det_695446624#1_1" lane="695446624#1_1" length="3.82" pos="8.326672684688674e-17"/>
    <laneAreaDetector file="e2output.xml" freq="60" friendlyPos="x" id="e2det_695446624#1_2" lane="695446624#1_2" length="3.82" pos="8.326672684688674e-17"/>
    <laneAreaDetector file="e2output.xml" freq="60" friendlyPos="x" id="e2det_695504114#2_0" lane="695504114#2_0" length="12.05" pos="0"/>
    <laneAreaDetector file="e2output.xml" freq="60" friendlyPos="x" id="e2det_695504114#2_1" lane="695504114#2_1" length="12.05" pos="0"/>
    <laneAreaDetector file="e2output.xml" freq="60" friendlyPos="x" id="e2det_695504114#2_2" lane="695504114#2_2" length="12.05" pos="0"/>
</additional>
