<additional xmlns:xsi="http://www.w3.org/2001/XMLSchema-instance" xsi:noNamespaceSchemaLocation="http://sumo.dlr.de/xsd/additional_file.xsd">
    <laneAreaDetector file="e2output.xml" freq="60" friendlyPos="x" id="e2det_-695429325#0_0" lane="-695429325#0_0" length="50" pos="14.100000000000003"/>
    <laneAreaDetector file="e2output.xml" freq="60" friendlyPos="x" id="e2det_-695429325#0_1" lane="-695429325#0_1" length="50" pos="14.100000000000003"/>
    <laneAreaDetector file="e2output.xml" freq="60" friendlyPos="x" id="e2det_-695446623#0_0" lane="-695446623#0_0" length="50" pos="31.740000000000002"/>
    <laneAreaDetector file="e2output.xml" freq="60" friendlyPos="x" id="e2det_-695446623#0_1" lane="-695446623#0_1" length="50" pos="31.740000000000002"/>
    <laneAreaDetector file="e2output.xml" freq="60" friendlyPos="x" id="e2det_695446624#1_0" lane="695446624#1_0" length="50" pos="37.38999999999999"/>
    <laneAreaDetector file="e2output.xml" freq="60" friendlyPos="x" id="e2det_695446624#1_1" lane="695446624#1_1" length="50" pos="37.38999999999999"/>
    <laneAreaDetector file="e2output.xml" freq="60" friendlyPos="x" id="e2det_695446624#1_2" lane="695446624#1_2" length="50" pos="37.38999999999999"/>
    <laneAreaDetector file="e2output.xml" freq="60" friendlyPos="x" id="e2det_695504114#2_0" lane="695504114#2_0" length="50" pos="35.60999999999999"/>
    <laneAreaDetector file="e2output.xml" freq="60" friendlyPos="x" id="e2det_695504114#2_1" lane="695504114#2_1" length="50" pos="35.60999999999999"/>
    <laneAreaDetector file="e2output.xml" freq="60" friendlyPos="x" id="e2det_695504114#2_2" lane="695504114#2_2" length="50" pos="35.60999999999999"/>
</additional>
