<?xml version="1.0" encoding="UTF-8"?>

<!-- generated on 2021-06-07 16:04:55 by Eclipse SUMO duarouter Version 1.9.2
<configuration xmlns:xsi="http://www.w3.org/2001/XMLSchema-instance" xsi:noNamespaceSchemaLocation="http://sumo.dlr.de/xsd/duarouterConfiguration.xsd">

    <input>
        <net-file value="nguyenvanlinh.net.xml"/>
        <route-files value="trips.trips.xml"/>
    </input>

    <output>
        <output-file value="nguyenvanlinh.rou.xml"/>
        <alternatives-output value="nguyenvanlinh.rou.alt.xml"/>
    </output>

    <time>
        <begin value="0"/>
        <end value="3600"/>
    </time>

    <report>
        <no-warnings value="true"/>
        <ignore-errors value="true"/>
        <no-step-log value="true"/>
    </report>

</configuration>
-->

<routes xmlns:xsi="http://www.w3.org/2001/XMLSchema-instance" xsi:noNamespaceSchemaLocation="http://sumo.dlr.de/xsd/routes_file.xsd">
    <vehicle id="1" depart="1.00">
        <route edges="-695446623#1"/>
    </vehicle>
    <vehicle id="5" depart="5.00">
        <route edges="-695446623#0 695446623#0 695446623#1"/>
    </vehicle>
    <vehicle id="7" depart="7.00">
        <route edges="695446624#1 695446623#0 695446623#1"/>
    </vehicle>
    <vehicle id="13" depart="13.00">
        <route edges="-695429325#0"/>
    </vehicle>
    <vehicle id="21" depart="21.00">
        <route edges="-695446623#1 -695446623#0 695429325#0 695429325#1 39368999#0"/>
    </vehicle>
    <vehicle id="23" depart="23.00">
        <route edges="-695429325#0 695429325#0 695429325#1 39368999#0"/>
    </vehicle>
    <vehicle id="24" depart="24.00">
        <route edges="695446624#1 695429325#0"/>
    </vehicle>
    <vehicle id="26" depart="26.00">
        <route edges="-695446623#1 -695446623#0 695504114#3"/>
    </vehicle>
    <vehicle id="28" depart="28.00">
        <route edges="-695446623#0 695490087#0 695490087#1"/>
    </vehicle>
    <vehicle id="29" depart="29.00">
        <route edges="-695429325#1 -695429325#0 695429325#0"/>
    </vehicle>
    <vehicle id="31" depart="31.00">
        <route edges="695446624#0 695446624#1 695490087#0"/>
    </vehicle>
    <vehicle id="35" depart="35.00">
        <route edges="-695446623#0 695504114#3"/>
    </vehicle>
    <vehicle id="36" depart="36.00">
        <route edges="695504114#2 695429325#0 695429325#1 39368999#0"/>
    </vehicle>
    <vehicle id="37" depart="37.00">
        <route edges="695446624#1 695429325#0 695429325#1"/>
    </vehicle>
    <vehicle id="39" depart="39.00">
        <route edges="-695446623#1"/>
    </vehicle>
    <vehicle id="46" depart="46.00">
        <route edges="695504114#1 695504114#2 695429325#0 695429325#1"/>
    </vehicle>
    <vehicle id="47" depart="47.00">
        <route edges="-695429325#0 695429325#0"/>
    </vehicle>
    <vehicle id="50" depart="50.00">
        <route edges="-39368999#0 -695429325#1 -695429325#0 695490087#0"/>
    </vehicle>
    <vehicle id="53" depart="53.00">
        <route edges="-695429325#1 -695429325#0 695429325#0 695429325#1"/>
    </vehicle>
    <vehicle id="61" depart="61.00">
        <route edges="695504114#1 695504114#2 695446623#0 695446623#1"/>
    </vehicle>
    <vehicle id="62" depart="62.00">
        <route edges="-39368999#0 -695429325#1 -695429325#0 695429325#0 695429325#1 39368999#0"/>
    </vehicle>
    <vehicle id="63" depart="63.00">
        <route edges="-39368999#0 -695429325#1 -695429325#0 695504114#3"/>
    </vehicle>
    <vehicle id="66" depart="66.00">
        <route edges="695504114#2 695504114#3 695504114#4"/>
    </vehicle>
    <vehicle id="67" depart="67.00">
        <route edges="-695429325#0 695446623#0"/>
    </vehicle>
    <vehicle id="68" depart="68.00">
        <route edges="-695429325#0 695490087#0 695490087#1"/>
    </vehicle>
    <vehicle id="70" depart="70.00">
        <route edges="695446623#0 695446623#1"/>
    </vehicle>
    <vehicle id="74" depart="74.00">
        <route edges="-695446623#0 695429325#0 695429325#1 39368999#0"/>
    </vehicle>
    <vehicle id="79" depart="79.00">
        <route edges="-695446623#1 -695446623#0"/>
    </vehicle>
    <vehicle id="81" depart="81.00">
        <route edges="-695446623#1 -695446623#0 695504114#3"/>
    </vehicle>
    <vehicle id="83" depart="83.00">
        <route edges="-695446623#1 -695446623#0 695490087#0"/>
    </vehicle>
    <vehicle id="88" depart="88.00">
        <route edges="-695429325#0 695429325#0 695429325#1"/>
    </vehicle>
    <vehicle id="94" depart="94.00">
        <route edges="-695446623#0 695446623#0"/>
    </vehicle>
    <vehicle id="95" depart="95.00">
        <route edges="695429325#1 39368999#0"/>
    </vehicle>
    <vehicle id="96" depart="96.00">
        <route edges="-695446623#1 -695446623#0 695504114#3"/>
    </vehicle>
    <vehicle id="107" depart="107.00">
        <route edges="695504114#4"/>
    </vehicle>
    <vehicle id="108" depart="108.00">
        <route edges="695446624#0 695446624#1 695490087#0"/>
    </vehicle>
    <vehicle id="109" depart="109.00">
        <route edges="-695429325#1 -695429325#0 695429325#0 695429325#1 39368999#0"/>
    </vehicle>
    <vehicle id="114" depart="114.00">
        <route edges="-695429325#1 -695429325#0 695504114#3 695504114#4"/>
    </vehicle>
    <vehicle id="116" depart="116.00">
        <route edges="695446624#0 695446624#1 695490087#0"/>
    </vehicle>
    <vehicle id="119" depart="119.00">
        <route edges="695446624#0 695446624#1"/>
    </vehicle>
    <vehicle id="122" depart="122.00">
        <route edges="-695446623#0 695490087#0"/>
    </vehicle>
    <vehicle id="123" depart="123.00">
        <route edges="-695446623#1 -695446623#0 695429325#0 695429325#1"/>
    </vehicle>
    <vehicle id="126" depart="126.00">
        <route edges="-695429325#0 695446623#0"/>
    </vehicle>
    <vehicle id="127" depart="127.00">
        <route edges="695504114#4"/>
    </vehicle>
    <vehicle id="129" depart="129.00">
        <route edges="-695446623#1 -695446623#0 695504114#3"/>
    </vehicle>
    <vehicle id="130" depart="130.00">
        <route edges="695504114#2"/>
    </vehicle>
    <vehicle id="135" depart="135.00">
        <route edges="695504114#1 695504114#2 695429325#0 695429325#1 39368999#0"/>
    </vehicle>
    <vehicle id="137" depart="137.00">
        <route edges="-695429325#1"/>
    </vehicle>
    <vehicle id="138" depart="138.00">
        <route edges="-695429325#0 695446623#0 695446623#1"/>
    </vehicle>
    <vehicle id="145" depart="145.00">
        <route edges="-39368999#0 -695429325#1 -695429325#0 695490087#0 695490087#1"/>
    </vehicle>
    <vehicle id="152" depart="152.00">
        <route edges="-695429325#1"/>
    </vehicle>
    <vehicle id="154" depart="154.00">
        <route edges="695504114#1 695504114#2"/>
    </vehicle>
    <vehicle id="157" depart="157.00">
        <route edges="695504114#1 695504114#2"/>
    </vehicle>
    <vehicle id="159" depart="159.00">
        <route edges="-695429325#1 -695429325#0 695504114#3"/>
    </vehicle>
    <vehicle id="160" depart="160.00">
        <route edges="695504114#2 695504114#3 695504114#4"/>
    </vehicle>
    <vehicle id="161" depart="161.00">
        <route edges="695504114#1 695504114#2"/>
    </vehicle>
    <vehicle id="162" depart="162.00">
        <route edges="-39368999#0 -695429325#1 -695429325#0 695490087#0 695490087#1"/>
    </vehicle>
    <vehicle id="164" depart="164.00">
        <route edges="695504114#1 695504114#2"/>
    </vehicle>
    <vehicle id="167" depart="167.00">
        <route edges="695504114#2"/>
    </vehicle>
    <vehicle id="174" depart="174.00">
        <route edges="695446624#1 695429325#0 695429325#1"/>
    </vehicle>
    <vehicle id="179" depart="179.00">
        <route edges="-695429325#0 695429325#0 695429325#1"/>
    </vehicle>
    <vehicle id="181" depart="181.00">
        <route edges="695446624#0 695446624#1 695446623#0 695446623#1"/>
    </vehicle>
    <vehicle id="183" depart="183.00">
        <route edges="-695446623#1 -695446623#0 695490087#0"/>
    </vehicle>
    <vehicle id="184" depart="184.00">
        <route edges="-39368999#0 -695429325#1 -695429325#0 695504114#3"/>
    </vehicle>
    <vehicle id="188" depart="188.00">
        <route edges="695446624#1 695429325#0 695429325#1 39368999#0"/>
    </vehicle>
    <vehicle id="192" depart="192.00">
        <route edges="695429325#1 39368999#0"/>
    </vehicle>
    <vehicle id="193" depart="193.00">
        <route edges="-695429325#1 -695429325#0 695429325#0 695429325#1"/>
    </vehicle>
    <vehicle id="197" depart="197.00">
        <route edges="-39368999#0 -695429325#1 -695429325#0 695429325#0 695429325#1 39368999#0"/>
    </vehicle>
    <vehicle id="199" depart="199.00">
        <route edges="695446624#1 695446623#0"/>
    </vehicle>
    <vehicle id="203" depart="203.00">
        <route edges="-695429325#0 695446623#0 695446623#1"/>
    </vehicle>
    <vehicle id="204" depart="204.00">
        <route edges="695446624#1 695429325#0"/>
    </vehicle>
    <vehicle id="208" depart="208.00">
        <route edges="-695446623#1 -695446623#0 695446623#0"/>
    </vehicle>
    <vehicle id="211" depart="211.00">
        <route edges="-695446623#0 695490087#0"/>
    </vehicle>
    <vehicle id="214" depart="214.00">
        <route edges="695490087#1"/>
    </vehicle>
    <vehicle id="215" depart="215.00">
        <route edges="-695429325#0 695429325#0 695429325#1"/>
    </vehicle>
    <vehicle id="216" depart="216.00">
        <route edges="-695446623#0 695504114#3 695504114#4"/>
    </vehicle>
    <vehicle id="224" depart="224.00">
        <route edges="695504114#1 695504114#2 695446623#0 695446623#1"/>
    </vehicle>
    <vehicle id="230" depart="230.00">
        <route edges="-695429325#0 695429325#0 695429325#1 39368999#0"/>
    </vehicle>
    <vehicle id="231" depart="231.00">
        <route edges="-695446623#1 -695446623#0 695429325#0 695429325#1 39368999#0"/>
    </vehicle>
    <vehicle id="233" depart="233.00">
        <route edges="-695446623#1 -695446623#0 695490087#0"/>
    </vehicle>
    <vehicle id="238" depart="238.00">
        <route edges="695446624#0 695446624#1 695490087#0"/>
    </vehicle>
    <vehicle id="242" depart="242.00">
        <route edges="695504114#2 695504114#3 695504114#4"/>
    </vehicle>
    <vehicle id="245" depart="245.00">
        <route edges="-695446623#0"/>
    </vehicle>
    <vehicle id="253" depart="253.00">
        <route edges="-695429325#1 -695429325#0 695446623#0"/>
    </vehicle>
    <vehicle id="254" depart="254.00">
        <route edges="-39368999#0 -695429325#1 -695429325#0 695429325#0"/>
    </vehicle>
    <vehicle id="255" depart="255.00">
        <route edges="-695446623#0 695429325#0 695429325#1 39368999#0"/>
    </vehicle>
    <vehicle id="259" depart="259.00">
        <route edges="-39368999#0 -695429325#1 -695429325#0 695446623#0 695446623#1"/>
    </vehicle>
    <vehicle id="262" depart="262.00">
        <route edges="695446624#1 695490087#0 695490087#1"/>
    </vehicle>
    <vehicle id="264" depart="264.00">
        <route edges="-39368999#0 -695429325#1"/>
    </vehicle>
    <vehicle id="265" depart="265.00">
        <route edges="-695429325#1 -695429325#0 695490087#0"/>
    </vehicle>
    <vehicle id="267" depart="267.00">
        <route edges="695490087#0 695490087#1"/>
    </vehicle>
    <vehicle id="270" depart="270.00">
        <route edges="695504114#1 695504114#2 695504114#3 695504114#4"/>
    </vehicle>
    <vehicle id="276" depart="276.00">
        <route edges="-695429325#0 695490087#0 695490087#1"/>
    </vehicle>
    <vehicle id="278" depart="278.00">
        <route edges="-695429325#1 -695429325#0 695504114#3 695504114#4"/>
    </vehicle>
    <vehicle id="279" depart="279.00">
        <route edges="695504114#1 695504114#2 695429325#0"/>
    </vehicle>
    <vehicle id="283" depart="283.00">
        <route edges="-695429325#0 695504114#3 695504114#4"/>
    </vehicle>
    <vehicle id="299" depart="299.00">
        <route edges="-39368999#0 -695429325#1 -695429325#0 695504114#3 695504114#4"/>
    </vehicle>
    <vehicle id="300" depart="300.00">
        <route edges="-695429325#0 695490087#0"/>
    </vehicle>
    <vehicle id="306" depart="306.00">
        <route edges="695446624#0 695446624#1 695446623#0"/>
    </vehicle>
    <vehicle id="313" depart="313.00">
        <route edges="-695446623#0"/>
    </vehicle>
    <vehicle id="322" depart="322.00">
        <route edges="695504114#2 695446623#0"/>
    </vehicle>
    <vehicle id="327" depart="327.00">
        <route edges="695504114#1 695504114#2 695429325#0 695429325#1"/>
    </vehicle>
    <vehicle id="329" depart="329.00">
        <route edges="-39368999#0 -695429325#1"/>
    </vehicle>
    <vehicle id="330" depart="330.00">
        <route edges="695446624#0 695446624#1 695429325#0 695429325#1 39368999#0"/>
    </vehicle>
    <vehicle id="339" depart="339.00">
        <route edges="-695446623#0"/>
    </vehicle>
    <vehicle id="342" depart="342.00">
        <route edges="-39368999#0 -695429325#1 -695429325#0 695446623#0"/>
    </vehicle>
    <vehicle id="343" depart="343.00">
        <route edges="695446624#0 695446624#1 695429325#0 695429325#1 39368999#0"/>
    </vehicle>
    <vehicle id="344" depart="344.00">
        <route edges="-695446623#1 -695446623#0 695490087#0"/>
    </vehicle>
    <vehicle id="352" depart="352.00">
        <route edges="-695429325#1 -695429325#0 695429325#0 695429325#1 39368999#0"/>
    </vehicle>
    <vehicle id="355" depart="355.00">
        <route edges="695490087#0"/>
    </vehicle>
    <vehicle id="358" depart="358.00">
        <route edges="-39368999#0 -695429325#1 -695429325#0 695429325#0 695429325#1"/>
    </vehicle>
    <vehicle id="360" depart="360.00">
        <route edges="-695429325#0 695504114#3 695504114#4"/>
    </vehicle>
    <vehicle id="362" depart="362.00">
        <route edges="695504114#4"/>
    </vehicle>
    <vehicle id="364" depart="364.00">
        <route edges="-39368999#0 -695429325#1 -695429325#0 695490087#0 695490087#1"/>
    </vehicle>
    <vehicle id="367" depart="367.00">
        <route edges="695446624#0 695446624#1"/>
    </vehicle>
    <vehicle id="369" depart="369.00">
        <route edges="695429325#0 695429325#1 39368999#0"/>
    </vehicle>
    <vehicle id="373" depart="373.00">
        <route edges="695504114#1 695504114#2 695446623#0 695446623#1"/>
    </vehicle>
    <vehicle id="379" depart="379.00">
        <route edges="-695446623#0 695429325#0"/>
    </vehicle>
    <vehicle id="384" depart="384.00">
        <route edges="-695429325#1 -695429325#0 695504114#3 695504114#4"/>
    </vehicle>
    <vehicle id="386" depart="386.00">
        <route edges="-695429325#1 -695429325#0 695446623#0 695446623#1"/>
    </vehicle>
    <vehicle id="390" depart="390.00">
        <route edges="695504114#1 695504114#2 695446623#0"/>
    </vehicle>
    <vehicle id="396" depart="396.00">
        <route edges="695504114#2"/>
    </vehicle>
    <vehicle id="400" depart="400.00">
        <route edges="39368999#0"/>
    </vehicle>
    <vehicle id="404" depart="404.00">
        <route edges="695446623#1"/>
    </vehicle>
    <vehicle id="406" depart="406.00">
        <route edges="-695446623#0 695490087#0"/>
    </vehicle>
    <vehicle id="410" depart="410.00">
        <route edges="695504114#1 695504114#2 695429325#0"/>
    </vehicle>
    <vehicle id="413" depart="413.00">
        <route edges="-39368999#0 -695429325#1 -695429325#0 695446623#0 695446623#1"/>
    </vehicle>
    <vehicle id="415" depart="415.00">
        <route edges="695504114#2 695429325#0 695429325#1"/>
    </vehicle>
    <vehicle id="422" depart="422.00">
        <route edges="695504114#2"/>
    </vehicle>
    <vehicle id="423" depart="423.00">
        <route edges="695429325#0 695429325#1 39368999#0"/>
    </vehicle>
    <vehicle id="424" depart="424.00">
        <route edges="695490087#0 695490087#1"/>
    </vehicle>
    <vehicle id="427" depart="427.00">
        <route edges="695504114#3 695504114#4"/>
    </vehicle>
    <vehicle id="430" depart="430.00">
        <route edges="695504114#2 695429325#0 695429325#1"/>
    </vehicle>
    <vehicle id="434" depart="434.00">
        <route edges="-695429325#1 -695429325#0 695446623#0 695446623#1"/>
    </vehicle>
    <vehicle id="438" depart="438.00">
        <route edges="-695446623#1 -695446623#0 695504114#3"/>
    </vehicle>
    <vehicle id="439" depart="439.00">
        <route edges="-695429325#1 -695429325#0 695446623#0"/>
    </vehicle>
    <vehicle id="440" depart="440.00">
        <route edges="-695446623#1"/>
    </vehicle>
    <vehicle id="443" depart="443.00">
        <route edges="-695429325#1 -695429325#0 695429325#0 695429325#1"/>
    </vehicle>
    <vehicle id="445" depart="445.00">
        <route edges="695446624#1 695429325#0 695429325#1"/>
    </vehicle>
    <vehicle id="447" depart="447.00">
        <route edges="-695446623#0 695429325#0"/>
    </vehicle>
    <vehicle id="449" depart="449.00">
        <route edges="695446624#0"/>
    </vehicle>
    <vehicle id="453" depart="453.00">
        <route edges="695490087#0 695490087#1"/>
    </vehicle>
    <vehicle id="457" depart="457.00">
        <route edges="695446624#0 695446624#1 695429325#0"/>
    </vehicle>
    <vehicle id="458" depart="458.00">
        <route edges="695446624#1"/>
    </vehicle>
    <vehicle id="459" depart="459.00">
        <route edges="695490087#0"/>
    </vehicle>
    <vehicle id="462" depart="462.00">
        <route edges="695446624#1 695429325#0 695429325#1 39368999#0"/>
    </vehicle>
    <vehicle id="470" depart="470.00">
        <route edges="695504114#1 695504114#2 695446623#0"/>
    </vehicle>
    <vehicle id="478" depart="478.00">
        <route edges="-39368999#0 -695429325#1 -695429325#0 695446623#0 695446623#1"/>
    </vehicle>
    <vehicle id="481" depart="481.00">
        <route edges="695504114#1 695504114#2 695504114#3"/>
    </vehicle>
    <vehicle id="486" depart="486.00">
        <route edges="695504114#1 695504114#2 695504114#3"/>
    </vehicle>
    <vehicle id="488" depart="488.00">
        <route edges="-695429325#1 -695429325#0 695504114#3 695504114#4"/>
    </vehicle>
    <vehicle id="491" depart="491.00">
        <route edges="-695429325#1 -695429325#0 695446623#0"/>
    </vehicle>
    <vehicle id="492" depart="492.00">
        <route edges="695490087#0 695490087#1"/>
    </vehicle>
    <vehicle id="498" depart="498.00">
        <route edges="695429325#0 695429325#1"/>
    </vehicle>
    <vehicle id="500" depart="500.00">
        <route edges="-695429325#0 695490087#0"/>
    </vehicle>
    <vehicle id="502" depart="502.00">
        <route edges="695429325#0 695429325#1"/>
    </vehicle>
    <vehicle id="504" depart="504.00">
        <route edges="695504114#2 695446623#0"/>
    </vehicle>
    <vehicle id="505" depart="505.00">
        <route edges="695446624#1"/>
    </vehicle>
    <vehicle id="509" depart="509.00">
        <route edges="-695429325#0 695490087#0 695490087#1"/>
    </vehicle>
    <vehicle id="510" depart="510.00">
        <route edges="-695446623#0"/>
    </vehicle>
    <vehicle id="511" depart="511.00">
        <route edges="695504114#2 695429325#0 695429325#1 39368999#0"/>
    </vehicle>
    <vehicle id="512" depart="512.00">
        <route edges="-695429325#1 -695429325#0 695504114#3"/>
    </vehicle>
    <vehicle id="514" depart="514.00">
        <route edges="-695429325#1"/>
    </vehicle>
    <vehicle id="515" depart="515.00">
        <route edges="-695446623#1 -695446623#0"/>
    </vehicle>
    <vehicle id="518" depart="518.00">
        <route edges="-695446623#1 -695446623#0 695429325#0 695429325#1 39368999#0"/>
    </vehicle>
    <vehicle id="522" depart="522.00">
        <route edges="695504114#1 695504114#2 695446623#0 695446623#1"/>
    </vehicle>
    <vehicle id="523" depart="523.00">
        <route edges="-695429325#0 695446623#0 695446623#1"/>
    </vehicle>
    <vehicle id="525" depart="525.00">
        <route edges="695504114#1 695504114#2"/>
    </vehicle>
    <vehicle id="533" depart="533.00">
        <route edges="695446624#1 695446623#0 695446623#1"/>
    </vehicle>
    <vehicle id="538" depart="538.00">
        <route edges="695446624#1 695490087#0 695490087#1"/>
    </vehicle>
    <vehicle id="547" depart="547.00">
        <route edges="-695429325#0 695490087#0 695490087#1"/>
    </vehicle>
    <vehicle id="549" depart="549.00">
        <route edges="695446624#0"/>
    </vehicle>
    <vehicle id="554" depart="554.00">
        <route edges="695446624#0 695446624#1 695429325#0"/>
    </vehicle>
    <vehicle id="560" depart="560.00">
        <route edges="695504114#2 695504114#3 695504114#4"/>
    </vehicle>
    <vehicle id="564" depart="564.00">
        <route edges="-695446623#1 -695446623#0"/>
    </vehicle>
    <vehicle id="577" depart="577.00">
        <route edges="695446624#1 695446623#0"/>
    </vehicle>
    <vehicle id="580" depart="580.00">
        <route edges="695429325#1 39368999#0"/>
    </vehicle>
    <vehicle id="584" depart="584.00">
        <route edges="-39368999#0 -695429325#1 -695429325#0 695429325#0 695429325#1 39368999#0"/>
    </vehicle>
    <vehicle id="586" depart="586.00">
        <route edges="-695446623#1 -695446623#0 695429325#0 695429325#1 39368999#0"/>
    </vehicle>
    <vehicle id="587" depart="587.00">
        <route edges="-39368999#0 -695429325#1 -695429325#0 695490087#0 695490087#1"/>
    </vehicle>
    <vehicle id="588" depart="588.00">
        <route edges="-695446623#0 695429325#0"/>
    </vehicle>
    <vehicle id="592" depart="592.00">
        <route edges="-39368999#0"/>
    </vehicle>
    <vehicle id="594" depart="594.00">
        <route edges="695446624#0"/>
    </vehicle>
    <vehicle id="601" depart="601.00">
        <route edges="695446624#0 695446624#1 695446623#0 695446623#1"/>
    </vehicle>
    <vehicle id="602" depart="602.00">
        <route edges="695429325#1 39368999#0"/>
    </vehicle>
    <vehicle id="603" depart="603.00">
        <route edges="695429325#0 695429325#1 39368999#0"/>
    </vehicle>
    <vehicle id="604" depart="604.00">
        <route edges="-695446623#0 695446623#0 695446623#1"/>
    </vehicle>
    <vehicle id="605" depart="605.00">
        <route edges="-695429325#1 -695429325#0 695446623#0 695446623#1"/>
    </vehicle>
    <vehicle id="610" depart="610.00">
        <route edges="695446624#0 695446624#1 695490087#0 695490087#1"/>
    </vehicle>
    <vehicle id="613" depart="613.00">
        <route edges="695490087#1"/>
    </vehicle>
    <vehicle id="615" depart="615.00">
        <route edges="695446624#0 695446624#1"/>
    </vehicle>
    <vehicle id="618" depart="618.00">
        <route edges="-695429325#0 695429325#0 695429325#1"/>
    </vehicle>
    <vehicle id="620" depart="620.00">
        <route edges="-695429325#0 695446623#0 695446623#1"/>
    </vehicle>
    <vehicle id="630" depart="630.00">
        <route edges="-695429325#1 -695429325#0"/>
    </vehicle>
    <vehicle id="631" depart="631.00">
        <route edges="-695429325#0 695504114#3"/>
    </vehicle>
    <vehicle id="634" depart="634.00">
        <route edges="-695446623#1 -695446623#0 695429325#0 695429325#1"/>
    </vehicle>
    <vehicle id="636" depart="636.00">
        <route edges="-695429325#1 -695429325#0 695429325#0"/>
    </vehicle>
    <vehicle id="640" depart="640.00">
        <route edges="-695429325#0"/>
    </vehicle>
    <vehicle id="645" depart="645.00">
        <route edges="-695429325#1 -695429325#0 695429325#0"/>
    </vehicle>
    <vehicle id="653" depart="653.00">
        <route edges="695446624#1 695429325#0 695429325#1"/>
    </vehicle>
    <vehicle id="654" depart="654.00">
        <route edges="695429325#0"/>
    </vehicle>
    <vehicle id="655" depart="655.00">
        <route edges="-695446623#0"/>
    </vehicle>
    <vehicle id="659" depart="659.00">
        <route edges="-695429325#0 695490087#0 695490087#1"/>
    </vehicle>
    <vehicle id="660" depart="660.00">
        <route edges="695504114#2"/>
    </vehicle>
    <vehicle id="661" depart="661.00">
        <route edges="-39368999#0 -695429325#1 -695429325#0 695429325#0"/>
    </vehicle>
    <vehicle id="666" depart="666.00">
        <route edges="695429325#1"/>
    </vehicle>
    <vehicle id="668" depart="668.00">
        <route edges="695429325#1 39368999#0"/>
    </vehicle>
    <vehicle id="671" depart="671.00">
        <route edges="695504114#1 695504114#2 695446623#0"/>
    </vehicle>
    <vehicle id="672" depart="672.00">
        <route edges="695504114#2 695429325#0"/>
    </vehicle>
    <vehicle id="673" depart="673.00">
        <route edges="695504114#4"/>
    </vehicle>
    <vehicle id="679" depart="679.00">
        <route edges="695504114#2 695446623#0 695446623#1"/>
    </vehicle>
    <vehicle id="681" depart="681.00">
        <route edges="695504114#2 695429325#0 695429325#1 39368999#0"/>
    </vehicle>
    <vehicle id="685" depart="685.00">
        <route edges="-695446623#0 695446623#0"/>
    </vehicle>
    <vehicle id="687" depart="687.00">
        <route edges="-39368999#0 -695429325#1 -695429325#0 695446623#0 695446623#1"/>
    </vehicle>
    <vehicle id="688" depart="688.00">
        <route edges="-695446623#1 -695446623#0 695504114#3 695504114#4"/>
    </vehicle>
    <vehicle id="692" depart="692.00">
        <route edges="-695429325#1 -695429325#0 695429325#0 695429325#1 39368999#0"/>
    </vehicle>
    <vehicle id="694" depart="694.00">
        <route edges="-695429325#1 -695429325#0 695490087#0"/>
    </vehicle>
    <vehicle id="697" depart="697.00">
        <route edges="695504114#2 695446623#0 695446623#1"/>
    </vehicle>
    <vehicle id="699" depart="699.00">
        <route edges="-695429325#1 -695429325#0 695429325#0 695429325#1 39368999#0"/>
    </vehicle>
    <vehicle id="704" depart="704.00">
        <route edges="-39368999#0 -695429325#1 -695429325#0 695446623#0 695446623#1"/>
    </vehicle>
    <vehicle id="707" depart="707.00">
        <route edges="-695446623#1 -695446623#0 695429325#0 695429325#1"/>
    </vehicle>
    <vehicle id="710" depart="710.00">
        <route edges="695446623#1"/>
    </vehicle>
    <vehicle id="715" depart="715.00">
        <route edges="695504114#1 695504114#2 695429325#0"/>
    </vehicle>
    <vehicle id="717" depart="717.00">
        <route edges="695490087#1"/>
    </vehicle>
    <vehicle id="723" depart="723.00">
        <route edges="-695429325#0 695490087#0 695490087#1"/>
    </vehicle>
    <vehicle id="726" depart="726.00">
        <route edges="-39368999#0 -695429325#1 -695429325#0 695504114#3"/>
    </vehicle>
    <vehicle id="731" depart="731.00">
        <route edges="695504114#2 695429325#0 695429325#1 39368999#0"/>
    </vehicle>
    <vehicle id="732" depart="732.00">
        <route edges="-695429325#1 -695429325#0 695429325#0"/>
    </vehicle>
    <vehicle id="745" depart="745.00">
        <route edges="695504114#2 695429325#0"/>
    </vehicle>
    <vehicle id="747" depart="747.00">
        <route edges="695504114#4"/>
    </vehicle>
    <vehicle id="754" depart="754.00">
        <route edges="695429325#0"/>
    </vehicle>
    <vehicle id="755" depart="755.00">
        <route edges="695446624#0"/>
    </vehicle>
    <vehicle id="758" depart="758.00">
        <route edges="695446624#0 695446624#1 695446623#0 695446623#1"/>
    </vehicle>
    <vehicle id="763" depart="763.00">
        <route edges="-695446623#1"/>
    </vehicle>
    <vehicle id="767" depart="767.00">
        <route edges="695504114#2 695446623#0"/>
    </vehicle>
    <vehicle id="769" depart="769.00">
        <route edges="-695429325#0 695490087#0"/>
    </vehicle>
    <vehicle id="770" depart="770.00">
        <route edges="695504114#2 695429325#0 695429325#1 39368999#0"/>
    </vehicle>
    <vehicle id="775" depart="775.00">
        <route edges="695504114#1 695504114#2 695446623#0 695446623#1"/>
    </vehicle>
    <vehicle id="778" depart="778.00">
        <route edges="-39368999#0 -695429325#1 -695429325#0 695446623#0 695446623#1"/>
    </vehicle>
    <vehicle id="781" depart="781.00">
        <route edges="-695429325#0 695429325#0 695429325#1 39368999#0"/>
    </vehicle>
    <vehicle id="789" depart="789.00">
        <route edges="-695446623#0 695504114#3 695504114#4"/>
    </vehicle>
    <vehicle id="791" depart="791.00">
        <route edges="-39368999#0 -695429325#1"/>
    </vehicle>
    <vehicle id="792" depart="792.00">
        <route edges="-695429325#1"/>
    </vehicle>
    <vehicle id="801" depart="801.00">
        <route edges="695446624#1 695490087#0"/>
    </vehicle>
    <vehicle id="804" depart="804.00">
        <route edges="-39368999#0"/>
    </vehicle>
    <vehicle id="806" depart="806.00">
        <route edges="695446624#1 695490087#0 695490087#1"/>
    </vehicle>
    <vehicle id="812" depart="812.00">
        <route edges="-695429325#0"/>
    </vehicle>
    <vehicle id="820" depart="820.00">
        <route edges="-695446623#1"/>
    </vehicle>
    <vehicle id="821" depart="821.00">
        <route edges="-695429325#0 695429325#0 695429325#1 39368999#0"/>
    </vehicle>
    <vehicle id="824" depart="824.00">
        <route edges="-695429325#1 -695429325#0 695429325#0 695429325#1 39368999#0"/>
    </vehicle>
    <vehicle id="825" depart="825.00">
        <route edges="695446624#0 695446624#1 695429325#0 695429325#1 39368999#0"/>
    </vehicle>
    <vehicle id="833" depart="833.00">
        <route edges="695446624#1 695446623#0"/>
    </vehicle>
    <vehicle id="836" depart="836.00">
        <route edges="695490087#1"/>
    </vehicle>
    <vehicle id="837" depart="837.00">
        <route edges="695429325#0 695429325#1"/>
    </vehicle>
    <vehicle id="844" depart="844.00">
        <route edges="695504114#1 695504114#2 695429325#0"/>
    </vehicle>
    <vehicle id="846" depart="846.00">
        <route edges="-695446623#0 695446623#0 695446623#1"/>
    </vehicle>
    <vehicle id="848" depart="848.00">