<?xml version="1.0" encoding="UTF-8"?>

<!-- generated on 2021-06-07 17:01:30 by Eclipse SUMO netedit Version 1.9.2
<configuration xmlns:xsi="http://www.w3.org/2001/XMLSchema-instance" xsi:noNamespaceSchemaLocation="http://sumo.dlr.de/xsd/netconvertConfiguration.xsd">

    <input>
        <sumo-net-file value="/home/tdinh/Documents/Project/Traffic_light_control/data/NguyenVanLinh/nguyenvanlinh.net.xml"/>
    </input>

    <output>
        <output-file value="/home/tdinh/Documents/Project/Traffic_light_control/data/NguyenVanLinh/nguyenvanlinh.net.xml"/>
    </output>

    <processing>
        <geometry.min-radius.fix.railways value="false"/>
        <geometry.max-grade.fix value="false"/>
        <offset.disable-normalization value="true"/>
        <lefthand value="false"/>
    </processing>

    <junctions>
        <no-turnarounds value="true"/>
        <junctions.corner-detail value="5"/>
        <junctions.limit-turn-speed value="5.5"/>
        <rectangular-lane-cut value="false"/>
    </junctions>

    <pedestrian>
        <walkingareas value="false"/>
    </pedestrian>

    <report>
        <aggregate-warnings value="5"/>
    </report>

</configuration>
-->

<net version="1.9" junctionCornerDetail="5" limitTurnSpeed="5.50" xmlns:xsi="http://www.w3.org/2001/XMLSchema-instance" xsi:noNamespaceSchemaLocation="http://sumo.dlr.de/xsd/net_file.xsd">

    <location netOffset="-201421.00,-1776746.54" convBoundary="6.43,247.85,356.96,1125.17" origBoundary="108.209434,16.052442,108.213595,16.062620" projParameter="+proj=utm +zone=49 +ellps=WGS84 +datum=WGS84 +units=m +no_defs"/>

    <type id="highway.bridleway" priority="1" numLanes="1" speed="2.78" allow="pedestrian" oneway="1" width="2.00"/>
    <type id="highway.bus_guideway" priority="1" numLanes="1" speed="27.78" allow="bus" oneway="1"/>
    <type id="highway.cycleway" priority="1" numLanes="1" speed="8.33" allow="bicycle" oneway="1" width="1.00"/>
    <type id="highway.footway" priority="1" numLanes="1" speed="2.78" allow="pedestrian" oneway="1" width="2.00"/>
    <type id="highway.ford" priority="1" numLanes="1" speed="2.78" allow="army" oneway="1"/>
    <type id="highway.living_street" priority="2" numLanes="1" speed="2.78" disallow="tram rail_urban rail rail_electric rail_fast ship" oneway="1"/>
    <type id="highway.motorway" priority="14" numLanes="2" speed="39.44" allow="private emergency authority army vip passenger hov taxi bus coach delivery truck trailer motorcycle evehicle custom1 custom2" oneway="1"/>
    <type id="highway.motorway_link" priority="9" numLanes="1" speed="22.22" allow="private emergency authority army vip passenger hov taxi bus coach delivery truck trailer motorcycle evehicle custom1 custom2" oneway="1"/>
    <type id="highway.path" priority="1" numLanes="1" speed="2.78" allow="pedestrian bicycle" oneway="1" width="2.00"/>
    <type id="highway.pedestrian" priority="1" numLanes="1" speed="2.78" allow="pedestrian" oneway="1" width="2.00"/>
    <type id="highway.primary" priority="12" numLanes="2" speed="27.78" disallow="tram rail_urban rail rail_electric rail_fast ship" oneway="1"/>
    <type id="highway.primary_link" priority="7" numLanes="1" speed="22.22" disallow="tram rail_urban rail rail_electric rail_fast ship" oneway="1"/>
    <type id="highway.raceway" priority="15" numLanes="2" speed="83.33" allow="vip" oneway="1"/>
    <type id="highway.residential" priority="3" numLanes="1" speed="13.89" disallow="tram rail_urban rail rail_electric rail_fast ship" oneway="1"/>
    <type id="highway.secondary" priority="11" numLanes="1" speed="27.78" disallow="tram rail_urban rail rail_electric rail_fast ship" oneway="1"/>
    <type id="highway.secondary_link" priority="6" numLanes="1" speed="22.22" disallow="tram rail_urban rail rail_electric rail_fast ship" oneway="1"/>
    <type id="highway.service" priority="1" numLanes="1" speed="5.56" allow="pedestrian delivery bicycle" oneway="1"/>
    <type id="highway.stairs" priority="1" numLanes="1" speed="1.39" allow="pedestrian" oneway="1" width="2.00"/>
    <type id="highway.step" priority="1" numLanes="1" speed="1.39" allow="pedestrian" oneway="1" width="2.00"/>
    <type id="highway.steps" priority="1" numLanes="1" speed="1.39" allow="pedestrian" oneway="1" width="2.00"/>
    <type id="highway.tertiary" priority="10" numLanes="1" speed="22.22" disallow="tram rail_urban rail rail_electric rail_fast ship" oneway="1"/>
    <type id="highway.tertiary_link" priority="5" numLanes="1" speed="22.22" disallow="tram rail_urban rail rail_electric rail_fast ship" oneway="1"/>
    <type id="highway.track" priority="1" numLanes="1" speed="5.56" allow="pedestrian motorcycle moped bicycle" oneway="1"/>
    <type id="highway.trunk" priority="13" numLanes="2" speed="27.78" disallow="pedestrian bicycle tram rail_urban rail rail_electric rail_fast ship" oneway="1"/>
    <type id="highway.trunk_link" priority="8" numLanes="1" speed="22.22" disallow="pedestrian bicycle tram rail_urban rail rail_electric rail_fast ship" oneway="1"/>
    <type id="highway.unclassified" priority="4" numLanes="1" speed="13.89" disallow="tram rail_urban rail rail_electric rail_fast ship" oneway="1"/>
    <type id="highway.unsurfaced" priority="1" numLanes="1" speed="8.33" disallow="tram rail_urban rail rail_electric rail_fast ship" oneway="1"/>
    <type id="railway.highspeed" priority="21" numLanes="1" speed="69.44" allow="rail_fast" oneway="1"/>
    <type id="railway.light_rail" priority="19" numLanes="1" speed="27.78" allow="rail_urban" oneway="1"/>
    <type id="railway.preserved" priority="16" numLanes="1" speed="27.78" allow="rail" oneway="1"/>
    <type id="railway.rail" priority="20" numLanes="1" speed="44.44" allow="rail" oneway="1"/>
    <type id="railway.subway" priority="18" numLanes="1" speed="27.78" allow="rail_urban" oneway="1"/>
    <type id="railway.tram" priority="17" numLanes="1" speed="13.89" allow="tram" oneway="1"/>

    <edge id=":1333361924_0" function="internal">
        <lane id=":1333361924_0_0" index="0" disallow="tram rail_urban rail rail_electric rail_fast ship" speed="27.78" length="0.34" shape="226.95,517.44 226.89,517.80"/>
        <lane id=":1333361924_0_1" index="1" disallow="tram rail_urban rail rail_electric rail_fast ship" speed="27.78" length="0.34" shape="223.79,516.93 223.74,517.23"/>
    </edge>
    <edge id=":1333361924_2" function="internal">
        <lane id=":1333361924_2_0" index="0" disallow="tram rail_urban rail rail_electric rail_fast ship" speed="27.78" length="0.23" shape="217.44,516.10 217.48,515.90"/>
        <lane id=":1333361924_2_1" index="1" disallow="tram rail_urban rail rail_electric rail_fast ship" speed="27.78" length="0.23" shape="220.59,516.67 220.63,516.41"/>
    </edge>
    <edge id=":6045383461_0" function="internal">
        <lane id=":6045383461_0_0" index="0" disallow="tram rail_urban rail rail_electric rail_fast ship" speed="27.78" length="0.12" shape="195.80,749.51 195.80,749.55"/>
        <lane id=":6045383461_0_1" index="1" disallow="tram rail_urban rail rail_electric rail_fast ship" speed="27.78" length="0.12" shape="192.64,749.01 192.62,749.20"/>
    </edge>
    <edge id=":6045383461_2" function="internal">
        <lane id=":6045383461_2_0" index="0" disallow="tram rail_urban rail rail_electric rail_fast ship" speed="27.78" length="0.43" shape="186.25,748.50 186.32,748.00"/>
        <lane id=":6045383461_2_1" index="1" disallow="tram rail_urban rail rail_electric rail_fast ship" speed="27.78" length="0.43" shape="189.43,748.85 189.48,748.50"/>
    </edge>
    <edge id=":6530186476_0" function="internal">
        <lane id=":6530186476_0_0" index="0" disallow="tram rail_urban rail rail_electric rail_fast ship" speed="27.78" length="0.50" shape="198.07,735.22 197.99,735.79"/>
        <lane id=":6530186476_0_1" index="1" disallow="tram rail_urban rail rail_electric rail_fast ship" speed="27.78" length="0.50" shape="194.89,734.88 194.83,735.29"/>
    </edge>
    <edge id=":6530186476_2" function="internal">
        <lane id=":6530186476_2_0" index="0" disallow="tram rail_urban rail rail_electric rail_fast ship" speed="27.78" length="0.17" shape="188.51,734.28 188.52,734.19"/>
        <lane id=":6530186476_2_1" index="1" disallow="tram rail_urban rail rail_electric rail_fast ship" speed="27.78" length="0.17" shape="191.67,734.78 191.71,734.53"/>
    </edge>
    <edge id=":6530229488_0" function="internal">
        <lane id=":6530229488_0_0" index="0" disallow="tram rail_urban rail rail_electric rail_fast ship" speed="27.78" length="0.29" shape="174.42,924.25 174.38,924.54"/>
        <lane id=":6530229488_0_1" index="1" disallow="tram rail_urban rail rail_electric rail_fast ship" speed="27.78" length="0.29" shape="171.25,923.83 171.21,924.12"/>
    </edge>
    <edge id=":6530229488_2" function="internal">
        <lane id=":6530229488_2_0" index="0" disallow="tram rail_urban rail rail_electric rail_fast ship" speed="27.78" length="0.31" shape="164.86,923.30 164.90,922.99"/>
        <lane id=":6530229488_2_1" index="1" disallow="tram rail_urban rail rail_electric rail_fast ship" speed="27.78" length="0.31" shape="168.03,923.71 168.07,923.41"/>
    </edge>
    <edge id=":6530229489_0" function="internal">
        <lane id=":6530229489_0_0" index="0" disallow="tram rail_urban rail rail_electric rail_fast ship" speed="27.78" length="4.95" shape="83.07,805.75 87.95,806.39"/>
        <lane id=":6530229489_0_1" index="1" disallow="tram rail_urban rail rail_electric rail_fast ship" speed="27.78" length="4.95" shape="82.63,808.92 87.55,809.57"/>
        <lane id=":6530229489_0_2" index="2" disallow="tram rail_urban rail rail_electric rail_fast ship" speed="27.78" length="4.95" shape="82.20,812.09 87.14,812.74"/>
    </edge>
    <edge id=":6530229490_0" function="internal">
        <lane id=":6530229490_0_0" index="0" disallow="tram rail_urban rail rail_electric rail_fast ship" speed="27.78" length="5.13" shape="85.63,824.05 80.48,823.29"/>
        <lane id=":6530229490_0_1" index="1" disallow="tram rail_urban rail rail_electric rail_fast ship" speed="27.78" length="5.13" shape="86.05,820.88 80.98,820.13"/>
        <lane id=":6530229490_0_2" index="2" disallow="tram rail_urban rail rail_electric rail_fast ship" speed="27.78" length="5.13" shape="86.48,817.70 81.49,816.97"/>
    </edge>
    <edge id=":6530229491_0" function="internal">
        <lane id=":6530229491_0_0" index="0" disallow="tram rail_urban rail rail_electric rail_fast ship" speed="27.78" length="5.01" shape="282.73,853.54 277.78,852.73"/>
        <lane id=":6530229491_0_1" index="1" disallow="tram rail_urban rail rail_electric rail_fast ship" speed="27.78" length="5.01" shape="283.25,850.38 278.30,849.57"/>
        <lane id=":6530229491_0_2" index="2" disallow="tram rail_urban rail rail_electric rail_fast ship" speed="27.78" length="5.01" shape="283.76,847.22 278.82,846.41"/>
    </edge>
    <edge id=":6530229492_0" function="internal">
        <lane id=":6530229492_0_0" index="0" disallow="tram rail_urban rail rail_electric rail_fast ship" speed="27.78" length="4.95" shape="280.78,834.46 285.64,835.23"/>
        <lane id=":6530229492_0_1" index="1" disallow="tram rail_urban rail rail_electric rail_fast ship" speed="27.78" length="4.95" shape="280.27,837.62 285.15,838.39"/>
        <lane id=":6530229492_0_2" index="2" disallow="tram rail_urban rail rail_electric rail_fast ship" speed="27.78" length="4.95" shape="279.75,840.77 284.67,841.55"/>
    </edge>
    <edge id=":cluster_2991819236_420249033_0" function="internal">
        <lane id=":cluster_2991819236_420249033_0_0" index="0" disallow="tram rail_urban rail rail_electric rail_fast ship" speed="6.44" length="9.03" shape="191.47,838.44 188.99,838.39 187.11,839.15 185.83,840.73 185.16,843.12"/>
    </edge>
    <edge id=":cluster_2991819236_420249033_1" function="internal">
        <lane id=":cluster_2991819236_420249033_1_0" index="0" disallow="tram rail_urban rail rail_electric rail_fast ship" speed="27.78" length="21.21" shape="191.47,838.44 170.59,835.33"/>
        <lane id=":cluster_2991819236_420249033_1_1" index="1" disallow="tram rail_urban rail rail_electric rail_fast ship" speed="27.78" length="21.21" shape="191.99,835.28 171.01,832.16"/>
        <lane id=":cluster_2991819236_420249033_1_2" index="2" disallow="tram rail_urban rail rail_electric rail_fast ship" speed="27.78" length="21.21" shape="192.51,832.13 171.43,828.98"/>
    </edge>
    <edge id=":cluster_2991819236_420249033_4" function="internal">
        <lane id=":cluster_2991819236_420249033_4_0" index="0" disallow="tram rail_urban rail rail_electric rail_fast ship" speed="10.58" length="9.76" shape="192.51,832.13 187.36,830.16 184.57,826.96"/>
    </edge>
    <edge id=":cluster_2991819236_420249033_20" function="internal">
        <lane id=":cluster_2991819236_420249033_20_0" index="0" disallow="tram rail_urban rail rail_electric rail_fast ship" speed="10.58" length="14.76" shape="184.57,826.96 183.95,826.26 182.30,820.43 182.39,812.66"/>
    </edge>
    <edge id=":cluster_2991819236_420249033_5" function="internal">
        <lane id=":cluster_2991819236_420249033_5_0" index="0" disallow="tram rail_urban rail rail_electric rail_fast ship" speed="6.98" length="10.13" shape="188.75,813.37 188.86,816.02 189.84,818.06 191.70,819.50 194.44,820.32"/>
    </edge>
    <edge id=":cluster_2991819236_420249033_6" function="internal">
        <lane id=":cluster_2991819236_420249033_6_0" index="0" disallow="tram rail_urban rail rail_electric rail_fast ship" speed="27.78" length="29.94" shape="188.75,813.37 185.16,843.12"/>
        <lane id=":cluster_2991819236_420249033_6_1" index="1" disallow="tram rail_urban rail rail_electric rail_fast ship" speed="27.78" length="29.94" shape="185.57,813.01 181.98,842.70"/>
    </edge>
    <edge id=":cluster_2991819236_420249033_8" function="internal">
        <lane id=":cluster_2991819236_420249033_8_0" index="0" disallow="tram rail_urban rail rail_electric rail_fast ship" speed="10.22" length="10.17" shape="185.57,813.01 183.96,820.61 182.79,822.71"/>
    </edge>
    <edge id=":cluster_2991819236_420249033_9" function="internal">
        <lane id=":cluster_2991819236_420249033_9_0" index="0" disallow="tram rail_urban rail rail_electric rail_fast ship" speed="3.65" length="2.34" shape="185.57,813.01 184.64,814.12 183.80,814.43"/>
    </edge>
    <edge id=":cluster_2991819236_420249033_21" function="internal">
        <lane id=":cluster_2991819236_420249033_21_0" index="0" disallow="tram rail_urban rail rail_electric rail_fast ship" speed="10.22" length="14.03" shape="182.79,822.71 181.06,825.80 176.89,828.59 171.43,828.98"/>
    </edge>
    <edge id=":cluster_2991819236_420249033_22" function="internal">
        <lane id=":cluster_2991819236_420249033_22_0" index="0" disallow="tram rail_urban rail rail_electric rail_fast ship" speed="3.65" length="2.34" shape="183.80,814.43 183.05,813.94 182.39,812.66"/>
    </edge>
    <edge id=":cluster_2991819236_420249033_10" function="internal">
        <lane id=":cluster_2991819236_420249033_10_0" index="0" disallow="tram rail_urban rail rail_electric rail_fast ship" speed="6.47" length="9.04" shape="173.00,817.19 175.48,817.16 177.35,816.33 178.59,814.71 179.21,812.31"/>
    </edge>
    <edge id=":cluster_2991819236_420249033_11" function="internal">
        <lane id=":cluster_2991819236_420249033_11_0" index="0" disallow="tram rail_urban rail rail_electric rail_fast ship" speed="27.78" length="21.57" shape="173.00,817.19 194.44,820.32"/>
        <lane id=":cluster_2991819236_420249033_11_1" index="1" disallow="tram rail_urban rail rail_electric rail_fast ship" speed="27.78" length="21.57" shape="172.58,820.37 193.92,823.48"/>
        <lane id=":cluster_2991819236_420249033_11_2" index="2" disallow="tram rail_urban rail rail_electric rail_fast ship" speed="27.78" length="21.57" shape="172.16,823.54 193.41,826.64"/>
    </edge>
    <edge id=":cluster_2991819236_420249033_14" function="internal">
        <lane id=":cluster_2991819236_420249033_14_0" index="0" disallow="tram rail_urban rail rail_electric rail_fast ship" speed="10.31" length="9.99" shape="172.16,823.54 177.33,825.32 180.33,828.69"/>
    </edge>
    <edge id=":cluster_2991819236_420249033_23" function="internal">
        <lane id=":cluster_2991819236_420249033_23_0" index="0" disallow="tram rail_urban rail rail_electric rail_fast ship" speed="10.31" length="14.36" shape="180.33,828.69 180.69,829.10 182.24,834.90 181.98,842.70"/>
    </edge>
    <edge id=":cluster_2991819236_420249033_15" function="internal">
        <lane id=":cluster_2991819236_420249033_15_0" index="0" disallow="tram rail_urban rail rail_electric rail_fast ship" speed="6.63" length="9.42" shape="175.64,841.86 175.61,839.29 174.76,837.35 173.09,836.03 170.59,835.33"/>
    </edge>
    <edge id=":cluster_2991819236_420249033_16" function="internal">
        <lane id=":cluster_2991819236_420249033_16_0" index="0" disallow="tram rail_urban rail rail_electric rail_fast ship" speed="27.78" length="29.80" shape="175.64,841.86 179.21,812.31"/>
        <lane id=":cluster_2991819236_420249033_16_1" index="1" disallow="tram rail_urban rail rail_electric rail_fast ship" speed="27.78" length="29.80" shape="178.81,842.28 182.39,812.66"/>
    </edge>
    <edge id=":cluster_2991819236_420249033_18" function="internal">
        <lane id=":cluster_2991819236_420249033_18_0" index="0" disallow="tram rail_urban rail rail_electric rail_fast ship" speed="10.21" length="9.64" shape="178.81,842.28 180.60,834.68 181.53,833.10"/>
    </edge>
    <edge id=":cluster_2991819236_420249033_19" function="internal">
        <lane id=":cluster_2991819236_420249033_19_0" index="0" disallow="tram rail_urban rail rail_electric rail_fast ship" speed="3.65" length="2.34" shape="178.81,842.28 179.76,841.20 180.61,840.91"/>
    </edge>
    <edge id=":cluster_2991819236_420249033_24" function="internal">
        <lane id=":cluster_2991819236_420249033_24_0" index="0" disallow="tram rail_urban rail rail_electric rail_fast ship" speed="10.21" length="14.69" shape="181.53,833.10 183.63,829.54 187.90,826.86 193.41,826.64"/>
    </edge>
    <edge id=":cluster_2991819236_420249033_25" function="internal">
        <lane id=":cluster_2991819236_420249033_25_0" index="0" disallow="tram rail_urban rail rail_electric rail_fast ship" speed="3.65" length="2.34" shape="180.61,840.91 181.35,841.41 181.98,842.70"/>
    </edge>

    <edge id="-39368999#0" from="1333361924" to="6530186476" priority="11" type="highway.secondary" shape="222.19,516.81 220.00,529.01 209.94,598.92 208.84,606.22 207.56,617.60 202.53,659.69 198.33,691.58 196.49,706.03 194.52,722.89 193.28,734.87">
        <lane id="-39368999#0_0" index="0" disallow="tram rail_urban rail rail_electric rail_fast ship" speed="27.78" length="219.46" shape="226.89,517.80 224.74,529.78 214.69,599.61 213.60,606.85 212.33,618.15 207.29,660.29 203.09,692.20 201.25,706.61 199.29,723.42 198.07,735.22"/>
        <lane id="-39368999#0_1" index="1" disallow="tram rail_urban rail rail_electric rail_fast ship" speed="27.78" length="219.46" shape="223.74,517.23 221.58,529.27 211.52,599.15 210.43,606.43 209.15,617.78 204.12,659.89 199.92,691.79 198.08,706.22 196.11,723.07 194.89,734.88"/>
    </edge>
    <edge id="-39368999#1" from="420248485" to="1333361924" priority="11" type="highway.secondary" shape="269.29,247.85 267.46,257.83 262.80,278.18 260.10,289.97 259.44,293.60 249.14,350.90 243.08,394.43 238.71,425.86 237.31,435.89 235.81,443.74 225.93,495.41 224.70,501.36 222.19,516.81">
        <lane id="-39368999#1_0" index="0" disallow="tram rail_urban rail rail_electric rail_fast ship" speed="27.78" length="272.95" shape="274.01,248.72 272.16,258.80 267.48,279.25 264.80,290.94 264.16,294.45 253.88,351.66 247.83,395.09 243.46,426.52 242.05,436.67 240.52,444.64 230.64,496.32 229.42,502.23 226.95,517.44"/>
        <lane id="-39368999#1_1" index="1" disallow="tram rail_urban rail rail_electric rail_fast ship" speed="27.78" length="272.95" shape="270.86,248.14 269.03,258.15 264.36,278.54 261.67,290.29 261.01,293.88 250.72,351.15 244.66,394.65 240.29,426.08 238.89,436.15 237.38,444.04 227.50,495.71 226.27,501.65 223.79,516.93"/>
    </edge>
    <edge id="-695429325#0" from="6045383461" to="cluster_2991819236_420249033" priority="11" type="highway.secondary" shape="191.04,748.89 183.00,821.69">
        <lane id="-695429325#0_0" index="0" disallow="tram rail_urban rail rail_electric rail_fast ship" speed="27.78" length="64.20" shape="195.80,749.55 188.75,813.37"/>
        <lane id="-695429325#0_1" index="1" disallow="tram rail_urban rail rail_electric rail_fast ship" speed="27.78" length="64.20" shape="192.62,749.20 185.57,813.01"/>
    </edge>
    <edge id="-695429325#1" from="6530186476" to="6045383461" priority="11" type="highway.secondary">
        <lane id="-695429325#1_0" index="0" disallow="tram rail_urban rail rail_electric rail_fast ship" speed="27.78" length="13.90" shape="197.99,735.79 195.80,749.51"/>
        <lane id="-695429325#1_1" index="1" disallow="tram rail_urban rail rail_electric rail_fast ship" speed="27.78" length="13.90" shape="194.83,735.29 192.64,749.01"/>
    </edge>
    <edge id="-695446623#0" from="6530229488" to="cluster_2991819236_420249033" priority="11" type="highway.secondary" shape="169.64,923.77 181.58,833.56">
        <lane id="-695446623#0_0" index="0" disallow="tram rail_urban rail rail_electric rail_fast ship" speed="27.78" length="81.84" shape="164.90,922.99 175.64,841.86"/>
        <lane id="-695446623#0_1" index="1" disallow="tram rail_urban rail rail_electric rail_fast ship" speed="27.78" length="81.84" shape="168.07,923.41 178.81,842.28"/>
    </edge>
    <edge id="-695446623#1" from="1333394789" to="6530229488" priority="11" type="highway.secondary">
        <lane id="-695446623#1_0" index="0" disallow="tram rail_urban rail rail_electric rail_fast ship" speed="27.78" length="45.19" shape="159.05,968.11 164.86,923.30"/>
        <lane id="-695446623#1_1" index="1" disallow="tram rail_urban rail rail_electric rail_fast ship" speed="27.78" length="45.19" shape="162.22,968.52 168.03,923.71"/>
    </edge>
    <edge id="39368999#0" from="6530186476" to="1333361924" priority="11" type="highway.secondary" shape="193.28,734.87 194.52,723.29 196.49,706.03 198.33,691.58 202.13,659.89 207.56,617.60 208.84,606.22 209.94,598.92 220.00,529.01 222.19,516.81">
        <lane id="39368999#0_0" index="0" disallow="tram rail_urban rail rail_electric rail_fast ship" speed="27.78" length="219.92" shape="188.52,734.19 189.75,722.76 191.72,705.45 193.57,690.99 197.37,659.30 202.79,617.03 204.08,605.59 205.19,598.22 215.26,528.24 217.44,516.10"/>
        <lane id="39368999#0_1" index="1" disallow="tram rail_urban rail rail_electric rail_fast ship" speed="27.78" length="219.92" shape="191.71,734.53 192.93,723.11 194.90,705.84 196.74,691.38 200.54,659.69 205.97,617.41 207.25,606.01 208.36,598.69 218.42,528.75 220.59,516.67"/>
    </edge>
    <edge id="39368999#1" from="1333361924" to="420248485" priority="11" type="highway.secondary" shape="222.19,516.81 224.70,501.36 225.93,495.41 235.81,443.74 237.31,435.89 238.71,425.86 243.08,394.43 249.14,350.90 259.44,293.60 260.10,289.97 262.80,278.18 267.46,257.83 269.29,247.85">
        <lane id="39368999#1_0" index="0" disallow="tram rail_urban rail rail_electric rail_fast ship" speed="27.78" length="273.08" shape="217.48,515.90 219.98,500.49 221.22,494.47 231.10,442.84 232.57,435.11 233.96,425.20 238.33,393.77 244.40,350.14 254.72,292.75 255.40,289.00 258.12,277.11 262.76,256.86 264.57,246.98"/>
        <lane id="39368999#1_1" index="1" disallow="tram rail_urban rail rail_electric rail_fast ship" speed="27.78" length="273.08" shape="220.63,516.41 223.13,501.07 224.36,495.10 234.24,443.44 235.73,435.63 237.13,425.64 241.50,394.21 247.56,350.65 257.87,293.32 258.53,289.65 261.24,277.82 265.89,257.51 267.72,247.56"/>
    </edge>
    <edge id="695429325#0" from="cluster_2991819236_420249033" to="6045383461" priority="11" type="highway.secondary" shape="183.00,821.69 191.04,748.89">
        <lane id="695429325#0_0" index="0" disallow="tram rail_urban rail rail_electric rail_fast ship" speed="27.78" length="64.20" shape="179.21,812.31 186.25,748.50"/>
        <lane id="695429325#0_1" index="1" disallow="tram rail_urban rail rail_electric rail_fast ship" speed="27.78" length="64.20" shape="182.39,812.66 189.43,748.85"/>
    </edge>
    <edge id="695429325#1" from="6045383461" to="6530186476" priority="11" type="highway.secondary">
        <lane id="695429325#1_0" index="0" disallow="tram rail_urban rail rail_electric rail_fast ship" speed="27.78" length="13.90" shape="186.32,748.00 188.51,734.28"/>
        <lane id="695429325#1_1" index="1" disallow="tram rail_urban rail rail_electric rail_fast ship" speed="27.78" length="13.90" shape="189.48,748.50 191.67,734.78"/>
    </edge>
    <edge id="695446623#0" from="cluster_2991819236_420249033" to="6530229488" priority="11" type="highway.secondary" shape="181.58,833.56 169.64,923.77">
        <lane id="695446623#0_0" index="0" disallow="tram rail_urban rail rail_electric rail_fast ship" speed="27.78" length="81.84" shape="185.16,843.12 174.42,924.25"/>
        <lane id="695446623#0_1" index="1" disallow="tram rail_urban rail rail_electric rail_fast ship" speed="27.78" length="81.84" shape="181.98,842.70 171.25,923.83"/>
    </edge>
    <edge id="695446623#1" from="6530229488" to="1333394789" priority="11" type="highway.secondary">
        <lane id="695446623#1_0" index="0" disallow="tram rail_urban rail rail_electric rail_fast ship" speed="27.78" length="45.19" shape="174.38,924.54 168.57,969.35"/>
        <lane id="695446623#1_1" index="1" disallow="tram rail_urban rail rail_electric rail_fast ship" speed="27.78" length="45.19" shape="171.21,924.12 165.40,968.94"/>
    </edge>
    <edge id="695446624#0" from="6530229487" to="6530229491" priority="12" type="highway.primary" spreadType="center">
        <lane id="695446624#0_0" index="0" disallow="tram rail_urban rail rail_electric rail_fast ship" speed="27.78" length="71.60" shape="353.39,865.08 282.73,853.54"/>
        <lane id="695446624#0_1" index="1" disallow="tram rail_urban rail rail_electric rail_fast ship" speed="27.78" length="71.60" shape="353.91,861.92 283.25,850.38"/>
        <lane id="695446624#0_2" index="2" disallow="tram rail_urban rail rail_electric rail_fast ship" speed="27.78" length="71.60" shape="354.43,858.76 283.76,847.22"/>
    </edge>
    <edge id="695446624#1" from="6530229491" to="cluster_2991819236_420249033" priority="12" type="highway.primary" spreadType="center" shape="280.78,849.98 181.58,833.56">
        <lane id="695446624#1_0" index="0" disallow="tram rail_urban rail rail_electric rail_fast ship" speed="27.78" length="87.49" shape="277.78,852.73 191.47,838.44"/>
        <lane id="695446624#1_1" index="1" disallow="tram rail_urban rail rail_electric rail_fast ship" speed="27.78" length="87.49" shape="278.30,849.57 191.99,835.28"/>
        <lane id="695446624#1_2" index="2" disallow="tram rail_urban rail rail_electric rail_fast ship" speed="27.78" length="87.49" shape="278.82,846.41 192.51,832.13"/>
    </edge>
    <edge id="695446626" from="6530229490" to="6530229489" priority="1" type="highway.footway" spreadType="center">
        <lane id="695446626_0" index="0" allow="pedestrian" speed="2.78" length="0.20" width="2.00" shape="84.32,814.99 84.35,814.80"/>
    </edge>
    <edge id="695446627" from="6530229492" to="6530229491" priority="1" type="highway.footway" spreadType="center">
        <lane id="695446627_0" index="0" allow="pedestrian" speed="2.78" length="0.20" width="2.00" shape="281.77,843.90 281.74,844.10"/>
    </edge>
    <edge id="695490087#0" from="cluster_2991819236_420249033" to="6530229490" priority="12" type="highway.primary" spreadType="center" shape="181.58,833.56 83.53,820.54">
        <lane id="695490087#0_0" index="0" disallow="tram rail_urban rail rail_electric rail_fast ship" speed="27.78" length="85.70" shape="170.59,835.33 85.63,824.05"/>
        <lane id="695490087#0_1" index="1" disallow="tram rail_urban rail rail_electric rail_fast ship" speed="27.78" length="85.70" shape="171.01,832.16 86.05,820.88"/>
        <lane id="695490087#0_2" index="2" disallow="tram rail_urban rail rail_electric rail_fast ship" speed="27.78" length="85.70" shape="171.43,828.98 86.48,817.70"/>
    </edge>
    <edge id="695490087#1" from="6530229490" to="6530363600" priority="12" type="highway.primary" spreadType="center" shape="83.53,820.54 45.51,814.47 6.43,809.67">
        <lane id="695490087#1_0" index="0" disallow="tram rail_urban rail rail_electric rail_fast ship" speed="27.78" length="75.30" shape="80.48,823.29 45.06,817.64 6.04,812.85"/>
        <lane id="695490087#1_1" index="1" disallow="tram rail_urban rail rail_electric rail_fast ship" speed="27.78" length="75.30" shape="80.98,820.13 45.51,814.47 6.43,809.67"/>
        <lane id="695490087#1_2" index="2" disallow="tram rail_urban rail rail_electric rail_fast ship" speed="27.78" length="75.30" shape="81.49,816.97 45.96,811.30 6.82,806.49"/>
    </edge>
    <edge id="695504114#1" from="6530363596" to="6530229489" priority="12" type="highway.primary" spreadType="center" shape="9.35,798.86 46.21,803.94 85.14,809.26">
        <lane id="695504114#1_0" index="0" disallow="tram rail_urban rail rail_electric rail_fast ship" speed="27.78" length="73.97" shape="9.79,795.69 46.65,800.77 83.07,805.75"/>
        <lane id="695504114#1_1" index="1" disallow="tram rail_urban rail rail_electric rail_fast ship" speed="27.78" length="73.97" shape="9.35,798.86 46.21,803.94 82.63,808.92"/>
        <lane id="695504114#1_2" index="2" disallow="tram rail_urban rail rail_electric rail_fast ship" speed="27.78" length="73.97" shape="8.91,802.03 45.77,807.11 82.20,812.09"/>
    </edge>