<?xml version="1.0" encoding="UTF-8"?>

<!-- generated on 2021-06-04 13:29:23 by Eclipse SUMO netedit Version 1.9.2
<configuration xmlns:xsi="http://www.w3.org/2001/XMLSchema-instance" xsi:noNamespaceSchemaLocation="http://sumo.dlr.de/xsd/netconvertConfiguration.xsd">

    <input>
        <sumo-net-file value="/home/tdinh/Documents/Project/Traffic_light_control/data/NguyenVanLinh/nguyenvanlinh.net.xml"/>
    </input>

    <output>
        <output-file value="/home/tdinh/Documents/Project/Traffic_light_control/data/NguyenVanLinh/nguyenvanlinh.net.xml"/>
    </output>

    <processing>
        <geometry.min-radius.fix.railways value="false"/>
        <geometry.max-grade.fix value="false"/>
        <offset.disable-normalization value="true"/>
        <lefthand value="false"/>
    </processing>

    <junctions>
        <no-turnarounds value="true"/>
        <junctions.corner-detail value="5"/>
        <junctions.limit-turn-speed value="5.5"/>
        <rectangular-lane-cut value="false"/>
    </junctions>

    <pedestrian>
        <walkingareas value="false"/>
    </pedestrian>

    <netedit>
        <additional-files value="/home/tdinh/Documents/Project/Traffic_light_control/data/NguyenVanLinh/nvl.add.xml"/>
    </netedit>

    <report>
        <aggregate-warnings value="5"/>
    </report>

</configuration>
-->

<additional xmlns:xsi="http://www.w3.org/2001/XMLSchema-instance" xsi:noNamespaceSchemaLocation="http://sumo.dlr.de/xsd/additional_file.xsd">
    <e2Detector id="e2Detector_-695446623#1_0_0" lane="-695446623#1_0" pos="33.84" length="10.00" freq="900.00" file="e2Detector_-695446623#1_0_0.xml"/>
    <e2Detector id="e2Detector_-695446623#1_1_1" lane="-695446623#1_1" pos="34.43" length="10.00" freq="900.00" file="e2Detector_-695446623#1_1_1.xml"/>
</additional>
