<?xml version="1.0" encoding="UTF-8"?>

<additional xmlns:xsi="http://www.w3.org/2001/XMLSchema-instance" xsi:noNamespaceSchemaLocation="http://sumo.dlr.de/xsd/additional_file.xsd">

<tazs>
    <taz id="1" edges="695504114#1"></taz>
    <taz id="2" edges="-39368999#0"></taz>
    <taz id="3" edges="695446624#0"></taz>
    <taz id="4" edges="-695446623#1"></taz>

    <taz id="5" edges="695490087#1"></taz>
    <taz id="6" edges="39368999#0"></taz>
    <taz id="7" edges="695504114#4"></taz>
    <taz id="8" edges="695446623#1"></taz>

</tazs>

</additional>