<?xml version="1.0" encoding="UTF-8"?>

<!-- generated on 2021-06-02 09:30:24 by Eclipse SUMO duarouter Version 1.9.2
<configuration xmlns:xsi="http://www.w3.org/2001/XMLSchema-instance" xsi:noNamespaceSchemaLocation="http://sumo.dlr.de/xsd/duarouterConfiguration.xsd">

    <input>
        <net-file value="nguyenvanlinh.net.xml"/>
        <route-files value="nvl.odtrips.xml"/>
    </input>

    <output>
        <output-file value="nvl.odtrips.rou.xml"/>
        <alternatives-output value="nvl.odtrips.rou.alt.xml"/>
    </output>

    <report>
        <xml-validation value="never"/>
        <xml-validation.routes value="never"/>
        <no-step-log value="true"/>
    </report>

</configuration>
-->

<routes xmlns:xsi="http://www.w3.org/2001/XMLSchema-instance" xsi:noNamespaceSchemaLocation="http://sumo.dlr.de/xsd/routes_file.xsd">
    <vehicle id="63" depart="0.79" departLane="free" departSpeed="max" fromTaz="1" toTaz="6">
        <route edges="695504114#1 695504114#2 695429325#0 695429325#1 39368999#0"/>
    </vehicle>
    <vehicle id="283" depart="2.83" departLane="free" departSpeed="max" fromTaz="2" toTaz="6">
        <route edges="-39368999#0 -695429325#1 -695429325#0 695429325#0 695429325#1 39368999#0"/>
    </vehicle>
    <vehicle id="519" depart="4.77" departLane="free" departSpeed="max" fromTaz="3" toTaz="7">
        <route edges="695446624#0 695446624#1 695429325#0 695429325#1 39368999#0 -39368999#0 -695429325#1 -695429325#0 695504114#3 695504114#4"/>
    </vehicle>
    <vehicle id="245" depart="11.12" departLane="free" departSpeed="max" fromTaz="2" toTaz="5">
        <route edges="-39368999#0 -695429325#1 -695429325#0 695490087#0 695490087#1"/>
    </vehicle>
    <vehicle id="88" depart="16.72" departLane="free" departSpeed="max" fromTaz="1" toTaz="6">
        <route edges="695504114#1 695504114#2 695429325#0 695429325#1 39368999#0"/>
    </vehicle>
    <vehicle id="9" depart="18.39" departLane="free" departSpeed="max" fromTaz="1" toTaz="5">
        <route edges="695504114#1 695504114#2 695429325#0 695429325#1 39368999#0 -39368999#0 -695429325#1 -695429325#0 695490087#0 695490087#1"/>
    </vehicle>
    <vehicle id="747" depart="18.97" departLane="free" departSpeed="max" fromTaz="4" toTaz="7">
        <route edges="-695446623#1 -695446623#0 695504114#3 695504114#4"/>
    </vehicle>
    <vehicle id="412" depart="19.61" departLane="free" departSpeed="max" fromTaz="3" toTaz="5">
        <route edges="695446624#0 695446624#1 695490087#0 695490087#1"/>
    </vehicle>
    <vehicle id="391" depart="23.05" departLane="free" departSpeed="max" fromTaz="2" toTaz="8">
        <route edges="-39368999#0 -695429325#1 -695429325#0 695446623#0 695446623#1"/>
    </vehicle>
    <vehicle id="198" depart="36.86" departLane="free" departSpeed="max" fromTaz="1" toTaz="8">
        <route edges="695504114#1 695504114#2 695446623#0 695446623#1"/>
    </vehicle>
    <vehicle id="526" depart="37.70" departLane="free" departSpeed="max" fromTaz="3" toTaz="7">
        <route edges="695446624#0 695446624#1 695429325#0 695429325#1 39368999#0 -39368999#0 -695429325#1 -695429325#0 695504114#3 695504114#4"/>
    </vehicle>
    <vehicle id="142" depart="39.03" departLane="free" departSpeed="max" fromTaz="1" toTaz="7">
        <route edges="695504114#1 695504114#2 695504114#3 695504114#4"/>
    </vehicle>
    <vehicle id="570" depart="46.90" departLane="free" departSpeed="max" fromTaz="3" toTaz="8">
        <route edges="695446624#0 695446624#1 695446623#0 695446623#1"/>
    </vehicle>
    <vehicle id="769" depart="47.95" departLane="free" departSpeed="max" fromTaz="4" toTaz="8">
        <route edges="-695446623#1 -695446623#0 695446623#0 695446623#1"/>
    </vehicle>
    <vehicle id="543" depart="54.47" departLane="free" departSpeed="max" fromTaz="3" toTaz="7">
        <route edges="695446624#0 695446624#1 695429325#0 695429325#1 39368999#0 -39368999#0 -695429325#1 -695429325#0 695504114#3 695504114#4"/>
    </vehicle>
    <vehicle id="5" depart="55.65" departLane="free" departSpeed="max" fromTaz="1" toTaz="5">
        <route edges="695504114#1 695504114#2 695429325#0 695429325#1 39368999#0 -39368999#0 -695429325#1 -695429325#0 695490087#0 695490087#1"/>
    </vehicle>
    <vehicle id="450" depart="58.23" departLane="free" departSpeed="max" fromTaz="3" toTaz="6">
        <route edges="695446624#0 695446624#1 695429325#0 695429325#1 39368999#0"/>
    </vehicle>
    <vehicle id="759" depart="63.32" departLane="free" departSpeed="max" fromTaz="4" toTaz="8">
        <route edges="-695446623#1 -695446623#0 695446623#0 695446623#1"/>
    </vehicle>
    <vehicle id="596" depart="70.72" departLane="free" departSpeed="max" fromTaz="3" toTaz="8">
        <route edges="695446624#0 695446624#1 695446623#0 695446623#1"/>
    </vehicle>
    <vehicle id="586" depart="73.98" departLane="free" departSpeed="max" fromTaz="3" toTaz="8">
        <route edges="695446624#0 695446624#1 695446623#0 695446623#1"/>
    </vehicle>
    <vehicle id="709" depart="76.05" departLane="free" departSpeed="max" fromTaz="4" toTaz="7">
        <route edges="-695446623#1 -695446623#0 695504114#3 695504114#4"/>
    </vehicle>
    <vehicle id="418" depart="77.89" departLane="free" departSpeed="max" fromTaz="3" toTaz="5">
        <route edges="695446624#0 695446624#1 695490087#0 695490087#1"/>
    </vehicle>
    <vehicle id="111" depart="81.63" departLane="free" departSpeed="max" fromTaz="1" toTaz="7">
        <route edges="695504114#1 695504114#2 695504114#3 695504114#4"/>
    </vehicle>
    <vehicle id="223" depart="101.43" departLane="free" departSpeed="max" fromTaz="2" toTaz="5">
        <route edges="-39368999#0 -695429325#1 -695429325#0 695490087#0 695490087#1"/>
    </vehicle>
    <vehicle id="508" depart="105.18" departLane="free" departSpeed="max" fromTaz="3" toTaz="7">
        <route edges="695446624#0 695446624#1 695429325#0 695429325#1 39368999#0 -39368999#0 -695429325#1 -695429325#0 695504114#3 695504114#4"/>
    </vehicle>
    <vehicle id="399" depart="106.94" departLane="free" departSpeed="max" fromTaz="2" toTaz="8">
        <route edges="-39368999#0 -695429325#1 -695429325#0 695446623#0 695446623#1"/>
    </vehicle>
    <vehicle id="367" depart="107.93" departLane="free" departSpeed="max" fromTaz="2" toTaz="8">
        <route edges="-39368999#0 -695429325#1 -695429325#0 695446623#0 695446623#1"/>
    </vehicle>
    <vehicle id="693" depart="108.25" departLane="free" departSpeed="max" fromTaz="4" toTaz="6">
        <route edges="-695446623#1 -695446623#0 695429325#0 695429325#1 39368999#0"/>
    </vehicle>
    <vehicle id="370" depart="114.89" departLane="free" departSpeed="max" fromTaz="2" toTaz="8">
        <route edges="-39368999#0 -695429325#1 -695429325#0 695446623#0 695446623#1"/>
    </vehicle>
    <vehicle id="129" depart="116.59" departLane="free" departSpeed="max" fromTaz="1" toTaz="7">
        <route edges="695504114#1 695504114#2 695504114#3 695504114#4"/>
    </vehicle>
    <vehicle id="646" depart="145.86" departLane="free" departSpeed="max" fromTaz="4" toTaz="5">
        <route edges="-695446623#1 -695446623#0 695490087#0 695490087#1"/>
    </vehicle>
    <vehicle id="400" depart="146.94" departLane="free" departSpeed="max" fromTaz="3" toTaz="5">
        <route edges="695446624#0 695446624#1 695490087#0 695490087#1"/>
    </vehicle>
    <vehicle id="318" depart="150.40" departLane="free" departSpeed="max" fromTaz="2" toTaz="7">
        <route edges="-39368999#0 -695429325#1 -695429325#0 695504114#3 695504114#4"/>
    </vehicle>
    <vehicle id="546" depart="153.28" departLane="free" departSpeed="max" fromTaz="3" toTaz="7">
        <route edges="695446624#0 695446624#1 695429325#0 695429325#1 39368999#0 -39368999#0 -695429325#1 -695429325#0 695504114#3 695504114#4"/>
    </vehicle>
    <vehicle id="564" depart="153.62" departLane="free" departSpeed="max" fromTaz="3" toTaz="8">
        <route edges="695446624#0 695446624#1 695446623#0 695446623#1"/>
    </vehicle>
    <vehicle id="648" depart="159.54" departLane="free" departSpeed="max" fromTaz="4" toTaz="5">
        <route edges="-695446623#1 -695446623#0 695490087#0 695490087#1"/>
    </vehicle>
    <vehicle id="19" depart="163.02" departLane="free" departSpeed="max" fromTaz="1" toTaz="5">
        <route edges="695504114#1 695504114#2 695429325#0 695429325#1 39368999#0 -39368999#0 -695429325#1 -695429325#0 695490087#0 695490087#1"/>
    </vehicle>
    <vehicle id="566" depart="167.76" departLane="free" departSpeed="max" fromTaz="3" toTaz="8">
        <route edges="695446624#0 695446624#1 695446623#0 695446623#1"/>
    </vehicle>
    <vehicle id="92" depart="169.75" departLane="free" departSpeed="max" fromTaz="1" toTaz="6">
        <route edges="695504114#1 695504114#2 695429325#0 695429325#1 39368999#0"/>
    </vehicle>
    <vehicle id="405" depart="171.44" departLane="free" departSpeed="max" fromTaz="3" toTaz="5">
        <route edges="695446624#0 695446624#1 695490087#0 695490087#1"/>
    </vehicle>
    <vehicle id="137" depart="179.52" departLane="free" departSpeed="max" fromTaz="1" toTaz="7">
        <route edges="695504114#1 695504114#2 695504114#3 695504114#4"/>
    </vehicle>
    <vehicle id="457" depart="182.42" departLane="free" departSpeed="max" fromTaz="3" toTaz="6">
        <route edges="695446624#0 695446624#1 695429325#0 695429325#1 39368999#0"/>
    </vehicle>
    <vehicle id="73" depart="186.01" departLane="free" departSpeed="max" fromTaz="1" toTaz="6">
        <route edges="695504114#1 695504114#2 695429325#0 695429325#1 39368999#0"/>
    </vehicle>
    <vehicle id="378" depart="187.53" departLane="free" departSpeed="max" fromTaz="2" toTaz="8">
        <route edges="-39368999#0 -695429325#1 -695429325#0 695446623#0 695446623#1"/>
    </vehicle>
    <vehicle id="106" depart="196.41" departLane="free" departSpeed="max" fromTaz="1" toTaz="7">
        <route edges="695504114#1 695504114#2 695504114#3 695504114#4"/>
    </vehicle>
    <vehicle id="503" depart="200.43" departLane="free" departSpeed="max" fromTaz="3" toTaz="7">
        <route edges="695446624#0 695446624#1 695429325#0 695429325#1 39368999#0 -39368999#0 -695429325#1 -695429325#0 695504114#3 695504114#4"/>
    </vehicle>
    <vehicle id="62" depart="207.72" departLane="free" departSpeed="max" fromTaz="1" toTaz="6">
        <route edges="695504114#1 695504114#2 695429325#0 695429325#1 39368999#0"/>
    </vehicle>
    <vehicle id="333" depart="208.04" departLane="free" departSpeed="max" fromTaz="2" toTaz="7">
        <route edges="-39368999#0 -695429325#1 -695429325#0 695504114#3 695504114#4"/>
    </vehicle>
    <vehicle id="165" depart="211.05" departLane="free" departSpeed="max" fromTaz="1" toTaz="8">
        <route edges="695504114#1 695504114#2 695446623#0 695446623#1"/>
    </vehicle>
    <vehicle id="68" depart="212.57" departLane="free" departSpeed="max" fromTaz="1" toTaz="6">
        <route edges="695504114#1 695504114#2 695429325#0 695429325#1 39368999#0"/>
    </vehicle>
    <vehicle id="147" depart="214.16" departLane="free" departSpeed="max" fromTaz="1" toTaz="7">
        <route edges="695504114#1 695504114#2 695504114#3 695504114#4"/>
    </vehicle>
    <vehicle id="452" depart="222.41" departLane="free" departSpeed="max" fromTaz="3" toTaz="6">
        <route edges="695446624#0 695446624#1 695429325#0 695429325#1 39368999#0"/>
    </vehicle>
    <vehicle id="362" depart="224.07" departLane="free" departSpeed="max" fromTaz="2" toTaz="8">
        <route edges="-39368999#0 -695429325#1 -695429325#0 695446623#0 695446623#1"/>
    </vehicle>
    <vehicle id="258" depart="235.68" departLane="free" departSpeed="max" fromTaz="2" toTaz="6">
        <route edges="-39368999#0 -695429325#1 -695429325#0 695429325#0 695429325#1 39368999#0"/>
    </vehicle>
    <vehicle id="27" depart="238.38" departLane="free" departSpeed="max" fromTaz="1" toTaz="5">
        <route edges="695504114#1 695504114#2 695429325#0 695429325#1 39368999#0 -39368999#0 -695429325#1 -695429325#0 695490087#0 695490087#1"/>
    </vehicle>
    <vehicle id="534" depart="240.80" departLane="free" departSpeed="max" fromTaz="3" toTaz="7">
        <route edges="695446624#0 695446624#1 695429325#0 695429325#1 39368999#0 -39368999#0 -695429325#1 -695429325#0 695504114#3 695504114#4"/>
    </vehicle>
    <vehicle id="511" depart="243.94" departLane="free" departSpeed="max" fromTaz="3" toTaz="7">
        <route edges="695446624#0 695446624#1 695429325#0 695429325#1 39368999#0 -39368999#0 -695429325#1 -695429325#0 695504114#3 695504114#4"/>
    </vehicle>
    <vehicle id="274" depart="244.16" departLane="free" departSpeed="max" fromTaz="2" toTaz="6">
        <route edges="-39368999#0 -695429325#1 -695429325#0 695429325#0 695429325#1 39368999#0"/>
    </vehicle>
    <vehicle id="698" depart="259.99" departLane="free" departSpeed="max" fromTaz="4" toTaz="6">
        <route edges="-695446623#1 -695446623#0 695429325#0 695429325#1 39368999#0"/>
    </vehicle>
    <vehicle id="422" depart="260.97" departLane="free" departSpeed="max" fromTaz="3" toTaz="5">
        <route edges="695446624#0 695446624#1 695490087#0 695490087#1"/>
    </vehicle>
    <vehicle id="502" depart="272.92" departLane="free" departSpeed="max" fromTaz="3" toTaz="7">
        <route edges="695446624#0 695446624#1 695429325#0 695429325#1 39368999#0 -39368999#0 -695429325#1 -695429325#0 695504114#3 695504114#4"/>
    </vehicle>
    <vehicle id="617" depart="278.45" departLane="free" departSpeed="max" fromTaz="4" toTaz="5">
        <route edges="-695446623#1 -695446623#0 695490087#0 695490087#1"/>
    </vehicle>
    <vehicle id="778" depart="278.73" departLane="free" departSpeed="max" fromTaz="4" toTaz="8">
        <route edges="-695446623#1 -695446623#0 695446623#0 695446623#1"/>
    </vehicle>
    <vehicle id="356" depart="280.53" departLane="free" departSpeed="max" fromTaz="2" toTaz="8">
        <route edges="-39368999#0 -695429325#1 -695429325#0 695446623#0 695446623#1"/>
    </vehicle>
    <vehicle id="608" depart="284.18" departLane="free" departSpeed="max" fromTaz="4" toTaz="5">
        <route edges="-695446623#1 -695446623#0 695490087#0 695490087#1"/>
    </vehicle>
    <vehicle id="197" depart="292.21" departLane="free" departSpeed="max" fromTaz="1" toTaz="8">
        <route edges="695504114#1 695504114#2 695446623#0 695446623#1"/>
    </vehicle>
    <vehicle id="408" depart="294.01" departLane="free" departSpeed="max" fromTaz="3" toTaz="5">
        <route edges="695446624#0 695446624#1 695490087#0 695490087#1"/>
    </vehicle>
    <vehicle id="653" depart="302.92" departLane="free" departSpeed="max" fromTaz="4" toTaz="6">
        <route edges="-695446623#1 -695446623#0 695429325#0 695429325#1 39368999#0"/>
    </vehicle>
    <vehicle id="547" depart="302.97" departLane="free" departSpeed="max" fromTaz="3" toTaz="7">
        <route edges="695446624#0 695446624#1 695429325#0 695429325#1 39368999#0 -39368999#0 -695429325#1 -695429325#0 695504114#3 695504114#4"/>
    </vehicle>
    <vehicle id="660" depart="306.30" departLane="free" departSpeed="max" fromTaz="4" toTaz="6">
        <route edges="-695446623#1 -695446623#0 695429325#0 695429325#1 39368999#0"/>
    </vehicle>
    <vehicle id="413" depart="314.38" departLane="free" departSpeed="max" fromTaz="3" toTaz="5">
        <route edges="695446624#0 695446624#1 695490087#0 695490087#1"/>
    </vehicle>
    <vehicle id="551" depart="315.21" departLane="free" departSpeed="max" fromTaz="3" toTaz="8">
        <route edges="695446624#0 695446624#1 695446623#0 695446623#1"/>
    </vehicle>
    <vehicle id="326" depart="320.66" departLane="free" departSpeed="max" fromTaz="2" toTaz="7">
        <route edges="-39368999#0 -695429325#1 -695429325#0 695504114#3 695504114#4"/>
    </vehicle>
    <vehicle id="98" depart="322.82" departLane="free" departSpeed="max" fromTaz="1" toTaz="6">
        <route edges="695504114#1 695504114#2 695429325#0 695429325#1 39368999#0"/>
    </vehicle>
    <vehicle id="70" depart="325.69" departLane="free" departSpeed="max" fromTaz="1" toTaz="6">
        <route edges="695504114#1 695504114#2 695429325#0 695429325#1 39368999#0"/>
    </vehicle>
    <vehicle id="180" depart="326.27" departLane="free" departSpeed="max" fromTaz="1" toTaz="8">
        <route edges="695504114#1 695504114#2 695446623#0 695446623#1"/>
    </vehicle>
    <vehicle id="343" depart="327.86" departLane="free" departSpeed="max" fromTaz="2" toTaz="7">
        <route edges="-39368999#0 -695429325#1 -695429325#0 695504114#3 695504114#4"/>
    </vehicle>
    <vehicle id="592" depart="335.03" departLane="free" departSpeed="max" fromTaz="3" toTaz="8">
        <route edges="695446624#0 695446624#1 695446623#0 695446623#1"/>
    </vehicle>
    <vehicle id="369" depart="340.73" departLane="free" departSpeed="max" fromTaz="2" toTaz="8">
        <route edges="-39368999#0 -695429325#1 -695429325#0 695446623#0 695446623#1"/>
    </vehicle>
    <vehicle id="581" depart="340.80" departLane="free" departSpeed="max" fromTaz="3" toTaz="8">
        <route edges="695446624#0 695446624#1 695446623#0 695446623#1"/>
    </vehicle>
    <vehicle id="560" depart="342.66" departLane="free" departSpeed="max" fromTaz="3" toTaz="8">
        <route edges="695446624#0 695446624#1 695446623#0 695446623#1"/>
    </vehicle>
    <vehicle id="183" depart="349.67" departLane="free" departSpeed="max" fromTaz="1" toTaz="8">
        <route edges="695504114#1 695504114#2 695446623#0 695446623#1"/>
    </vehicle>
    <vehicle id="49" depart="353.09" departLane="free" departSpeed="max" fromTaz="1" toTaz="5">
        <route edges="695504114#1 695504114#2 695429325#0 695429325#1 39368999#0 -39368999#0 -695429325#1 -695429325#0 695490087#0 695490087#1"/>
    </vehicle>
    <vehicle id="207" depart="357.13" departLane="free" departSpeed="max" fromTaz="2" toTaz="5">
        <route edges="-39368999#0 -695429325#1 -695429325#0 695490087#0 695490087#1"/>
    </vehicle>
    <vehicle id="556" depart="361.60" departLane="free" departSpeed="max" fromTaz="3" toTaz="8">
        <route edges="695446624#0 695446624#1 695446623#0 695446623#1"/>
    </vehicle>
    <vehicle id="87" depart="363.53" departLane="free" departSpeed="max" fromTaz="1" toTaz="6">
        <route edges="695504114#1 695504114#2 695429325#0 695429325#1 39368999#0"/>
    </vehicle>
    <vehicle id="393" depart="368.31" departLane="free" departSpeed="max" fromTaz="2" toTaz="8">
        <route edges="-39368999#0 -695429325#1 -695429325#0 695446623#0 695446623#1"/>
    </vehicle>
    <vehicle id="83" depart="368.78" departLane="free" departSpeed="max" fromTaz="1" toTaz="6">
        <route edges="695504114#1 695504114#2 695429325#0 695429325#1 39368999#0"/>
    </vehicle>
    <vehicle id="710" depart="374.70" departLane="free" departSpeed="max" fromTaz="4" toTaz="7">
        <route edges="-695446623#1 -695446623#0 695504114#3 695504114#4"/>
    </vehicle>
    <vehicle id="7" depart="381.92" departLane="free" departSpeed="max" fromTaz="1" toTaz="5">
        <route edges="695504114#1 695504114#2 695429325#0 695429325#1 39368999#0 -39368999#0 -695429325#1 -695429325#0 695490087#0 695490087#1"/>
    </vehicle>
    <vehicle id="65" depart="386.17" departLane="free" departSpeed="max" fromTaz="1" toTaz="6">
        <route edges="695504114#1 695504114#2 695429325#0 695429325#1 39368999#0"/>
    </vehicle>
    <vehicle id="666" depart="389.08" departLane="free" departSpeed="max" fromTaz="4" toTaz="6">
        <route edges="-695446623#1 -695446623#0 695429325#0 695429325#1 39368999#0"/>
    </vehicle>
    <vehicle id="647" depart="395.17" departLane="free" departSpeed="max" fromTaz="4" toTaz="5">
        <route edges="-695446623#1 -695446623#0 695490087#0 695490087#1"/>
    </vehicle>
    <vehicle id="690" depart="395.23" departLane="free" departSpeed="max" fromTaz="4" toTaz="6">
        <route edges="-695446623#1 -695446623#0 695429325#0 695429325#1 39368999#0"/>
    </vehicle>
    <vehicle id="447" depart="396.42" departLane="free" departSpeed="max" fromTaz="3" toTaz="5">
        <route edges="695446624#0 695446624#1 695490087#0 695490087#1"/>
    </vehicle>
    <vehicle id="95" depart="397.95" departLane="free" departSpeed="max" fromTaz="1" toTaz="6">
        <route edges="695504114#1 695504114#2 695429325#0 695429325#1 39368999#0"/>
    </vehicle>
    <vehicle id="444" depart="409.79" departLane="free" departSpeed="max" fromTaz="3" toTaz="5">
        <route edges="695446624#0 695446624#1 695490087#0 695490087#1"/>
    </vehicle>
    <vehicle id="42" depart="410.68" departLane="free" departSpeed="max" fromTaz="1" toTaz="5">
        <route edges="695504114#1 695504114#2 695429325#0 695429325#1 39368999#0 -39368999#0 -695429325#1 -695429325#0 695490087#0 695490087#1"/>
    </vehicle>
    <vehicle id="488" depart="416.57" departLane="free" departSpeed="max" fromTaz="3" toTaz="6">
        <route edges="695446624#0 695446624#1 695429325#0 695429325#1 39368999#0"/>
    </vehicle>
    <vehicle id="299" depart="422.38" departLane="free" departSpeed="max" fromTaz="2" toTaz="6">
        <route edges="-39368999#0 -695429325#1 -695429325#0 695429325#0 695429325#1 39368999#0"/>
    </vehicle>
    <vehicle id="33" depart="423.68" departLane="free" departSpeed="max" fromTaz="1" toTaz="5">
        <route edges="695504114#1 695504114#2 695429325#0 695429325#1 39368999#0 -39368999#0 -695429325#1 -695429325#0 695490087#0 695490087#1"/>
    </vehicle>
    <vehicle id="437" depart="425.10" departLane="free" departSpeed="max" fromTaz="3" toTaz="5">
        <route edges="695446624#0 695446624#1 695490087#0 695490087#1"/>
    </vehicle>
    <vehicle id="208" depart="429.67" departLane="free" departSpeed="max" fromTaz="2" toTaz="5">
        <route edges="-39368999#0 -695429325#1 -695429325#0 695490087#0 695490087#1"/>
    </vehicle>
    <vehicle id="30" depart="433.87" departLane="free" departSpeed="max" fromTaz="1" toTaz="5">
        <route edges="695504114#1 695504114#2 695429325#0 695429325#1 39368999#0 -39368999#0 -695429325#1 -695429325#0 695490087#0 695490087#1"/>
    </vehicle>
    <vehicle id="26" depart="436.43" departLane="free" departSpeed="max" fromTaz="1" toTaz="5">
        <route edges="695504114#1 695504114#2 695429325#0 695429325#1 39368999#0 -39368999#0 -695429325#1 -695429325#0 695490087#0 695490087#1"/>
    </vehicle>
    <vehicle id="655" depart="441.70" departLane="free" departSpeed="max" fromTaz="4" toTaz="6">
        <route edges="-695446623#1 -695446623#0 695429325#0 695429325#1 39368999#0"/>
    </vehicle>
    <vehicle id="649" depart="442.81" departLane="free" departSpeed="max" fromTaz="4" toTaz="5">
        <route edges="-695446623#1 -695446623#0 695490087#0 695490087#1"/>
    </vehicle>
    <vehicle id="426" depart="452.31" departLane="free" departSpeed="max" fromTaz="3" toTaz="5">
        <route edges="695446624#0 695446624#1 695490087#0 695490087#1"/>
    </vehicle>
    <vehicle id="445" depart="456.61" departLane="free" departSpeed="max" fromTaz="3" toTaz="5">
        <route edges="695446624#0 695446624#1 695490087#0 695490087#1"/>
    </vehicle>
    <vehicle id="205" depart="464.16" departLane="free" departSpeed="max" fromTaz="2" toTaz="5">
        <route edges="-39368999#0 -695429325#1 -695429325#0 695490087#0 695490087#1"/>
    </vehicle>
    <vehicle id="749" depart="470.56" departLane="free" departSpeed="max" fromTaz="4" toTaz="7">
        <route edges="-695446623#1 -695446623#0 695504114#3 695504114#4"/>
    </vehicle>
    <vehicle id="430" depart="476.56" departLane="free" departSpeed="max" fromTaz="3" toTaz="5">
        <route edges="695446624#0 695446624#1 695490087#0 695490087#1"/>
    </vehicle>
    <vehicle id="1" depart="476.94" departLane="free" departSpeed="max" fromTaz="1" toTaz="5">
        <route edges="695504114#1 695504114#2 695429325#0 695429325#1 39368999#0 -39368999#0 -695429325#1 -695429325#0 695490087#0 695490087#1"/>
    </vehicle>
    <vehicle id="351" depart="477.14" departLane="free" departSpeed="max" fromTaz="2" toTaz="8">
        <route edges="-39368999#0 -695429325#1 -695429325#0 695446623#0 695446623#1"/>
    </vehicle>
    <vehicle id="591" depart="482.04" departLane="free" departSpeed="max" fromTaz="3" toTaz="8">
        <route edges="695446624#0 695446624#1 695446623#0 695446623#1"/>
    </vehicle>
    <vehicle id="271" depart="490.44" departLane="free" departSpeed="max" fromTaz="2" toTaz="6">
        <route edges="-39368999#0 -695429325#1 -695429325#0 695429325#0 695429325#1 39368999#0"/>
    </vehicle>
    <vehicle id="178" depart="505.51" departLane="free" departSpeed="max" fromTaz="1" toTaz="8">
        <route edges="695504114#1 695504114#2 695446623#0 695446623#1"/>
    </vehicle>
    <vehicle id="715" depart="510.67" departLane="free" departSpeed="max" fromTaz="4" toTaz="7">
        <route edges="-695446623#1 -695446623#0 695504114#3 695504114#4"/>
    </vehicle>
    <vehicle id="726" depart="523.24" departLane="free" departSpeed="max" fromTaz="4" toTaz="7">
        <route edges="-695446623#1 -695446623#0 695504114#3 695504114#4"/>
    </vehicle>
    <vehicle id="569" depart="527.29" departLane="free" departSpeed="max" fromTaz="3" toTaz="8">
        <route edges="695446624#0 695446624#1 695446623#0 695446623#1"/>
    </vehicle>
    <vehicle id="706" depart="530.66" departLane="free" departSpeed="max" fromTaz="4" toTaz="7">
        <route edges="-695446623#1 -695446623#0 695504114#3 695504114#4"/>
    </vehicle>
    <vehicle id="744" depart="533.42" departLane="free" departSpeed="max" fromTaz="4" toTaz="7">
        <route edges="-695446623#1 -695446623#0 695504114#3 695504114#4"/>
    </vehicle>
    <vehicle id="583" depart="541.66" departLane="free" departSpeed="max" fromTaz="3" toTaz="8">
        <route edges="695446624#0 695446624#1 695446623#0 695446623#1"/>
    </vehicle>
    <vehicle id="402" depart="546.44" departLane="free" departSpeed="max" fromTaz="3" toTaz="5">
        <route edges="695446624#0 695446624#1 695490087#0 695490087#1"/>
    </vehicle>
    <vehicle id="538" depart="558.67" departLane="free" departSpeed="max" fromTaz="3" toTaz="7">
        <route edges="695446624#0 695446624#1 695429325#0 695429325#1 39368999#0 -39368999#0 -695429325#1 -695429325#0 695504114#3 695504114#4"/>
    </vehicle>
    <vehicle id="723" depart="559.93" departLane="free" departSpeed="max" fromTaz="4" toTaz="7">
        <route edges="-695446623#1 -695446623#0 695504114#3 695504114#4"/>
    </vehicle>
    <vehicle id="241" depart="560.10" departLane="free" departSpeed="max" fromTaz="2" toTaz="5">
        <route edges="-39368999#0 -695429325#1 -695429325#0 695490087#0 695490087#1"/>
    </vehicle>
    <vehicle id="729" depart="560.11" departLane="free" departSpeed="max" fromTaz="4" toTaz="7">
        <route edges="-695446623#1 -695446623#0 695504114#3 695504114#4"/>
    </vehicle>
    <vehicle id="252" depart="561.95" departLane="free" departSpeed="max" fromTaz="2" toTaz="6">
        <route edges="-39368999#0 -695429325#1 -695429325#0 695429325#0 695429325#1 39368999#0"/>
    </vehicle>
    <vehicle id="152" depart="568.32" departLane="free" departSpeed="max" fromTaz="1" toTaz="8">
        <route edges="695504114#1 695504114#2 695446623#0 695446623#1"/>
    </vehicle>
    <vehicle id="641" depart="569.90" departLane="free" departSpeed="max" fromTaz="4" toTaz="5">
        <route edges="-695446623#1 -695446623#0 695490087#0 695490087#1"/>
    </vehicle>
    <vehicle id="336" depart="573.43" departLane="free" departSpeed="max" fromTaz="2" toTaz="7">
        <route edges="-39368999#0 -695429325#1 -695429325#0 695504114#3 695504114#4"/>
    </vehicle>
    <vehicle id="176" depart="574.15" departLane="free" departSpeed="max" fromTaz="1" toTaz="8">
        <route edges="695504114#1 695504114#2 695446623#0 695446623#1"/>
    </vehicle>
    <vehicle id="250" depart="574.27" departLane="free" departSpeed="max" fromTaz="2" toTaz="6">
        <route edges="-39368999#0 -695429325#1 -695429325#0 695429325#0 695429325#1 39368999#0"/>
    </vehicle>
    <vehicle id="61" depart="587.91" departLane="free" departSpeed="max" fromTaz="1" toTaz="6">
        <route edges="695504114#1 695504114#2 695429325#0 695429325#1 39368999#0"/>
    </vehicle>
    <vehicle id="633" depart="591.35" departLane="free" departSpeed="max" fromTaz="4" toTaz="5">
        <route edges="-695446623#1 -695446623#0 695490087#0 695490087#1"/>
    </vehicle>
    <vehicle id="143" depart="592.10" departLane="free" departSpeed="max" fromTaz="1" toTaz="7">
        <route edges="695504114#1 695504114#2 695504114#3 695504114#4"/>
    </vehicle>
    <vehicle id="618" depart="612.07" departLane="free" departSpeed="max" fromTaz="4" toTaz="5">
        <route edges="-695446623#1 -695446623#0 695490087#0 695490087#1"/>
    </vehicle>
    <vehicle id="77" depart="617.57" departLane="free" departSpeed="max" fromTaz="1" toTaz="6">
        <route edges="695504114#1 695504114#2 695429325#0 695429325#1 39368999#0"/>
    </vehicle>
    <vehicle id="492" depart="624.75" departLane="free" departSpeed="max" fromTaz="3" toTaz="6">
        <route edges="695446624#0 695446624#1 695429325#0 695429325#1 39368999#0"/>
    </vehicle>
    <vehicle id="734" depart="629.06" departLane="free" departSpeed="max" fromTaz="4" toTaz="7">
        <route edges="-695446623#1 -695446623#0 695504114#3 695504114#4"/>
    </vehicle>
    <vehicle id="394" depart="635.18" departLane="free" departSpeed="max" fromTaz="2" toTaz="8">
        <route edges="-39368999#0 -695429325#1 -695429325#0 695446623#0 695446623#1"/>
    </vehicle>
    <vehicle id="529" depart="636.26" departLane="free" departSpeed="max" fromTaz="3" toTaz="7">
        <route edges="695446624#0 695446624#1 695429325#0 695429325#1 39368999#0 -39368999#0 -695429325#1 -695429325#0 695504114#3 695504114#4"/>
    </vehicle>
    <vehicle id="770" depart="637.60" departLane="free" departSpeed="max" fromTaz="4" toTaz="8">
        <route edges="-695446623#1 -695446623#0 695446623#0 695446623#1"/>
    </vehicle>